data/inputs/nesta_case6515_rte.m
%%%%%%%%%%%%%%%%%%%%%%%%%%%%%%%%%%%%%%%%%%%%%%%%%%%%%%%%%%%%%%%%%%%%%%%%%%%
%%%%                                                                  %%%%%
%%%%      NICTA Energy System Test Case Archive (NESTA) - v0.7.0      %%%%%
%%%%              Optimal Power Flow - Typical Operation              %%%%%
%%%%                         05 - June - 2017                         %%%%%
%%%%                                                                  %%%%%
%%%%%%%%%%%%%%%%%%%%%%%%%%%%%%%%%%%%%%%%%%%%%%%%%%%%%%%%%%%%%%%%%%%%%%%%%%%
%
%CASE6515RTE
%   AC Power flow data for French system.
%   Please see CASEFORMAT for details on the case file format.
%
%   This case accurately represents the size and complexity of French
%   very high voltage and high voltage transmission network.
%   These data are snapshots of French VHV+HV grid in 2013.
%   These data can be used to validate mathematical methods and tools.
%   These data should NOT be used for operation
%   nor planning of the French or European grids.
%
%   When publishing results using this data, please cite:
%     C. Josz, S. Fliscounakis, J. Maeght, and P. Panciatici,
%     "AC Power Flow Data in MATPOWER and QCQP Format: iTesla, RTE Snapshots, and PEGASE"
%     http://arxiv.org/abs/1603.01533
%
%   Contacts (primary contact for this file : Jean Maeght):
%   Cédric Josz, Stéphane Fliscounakis, Jean Maeght, Patrick Panciatici
%   firstname.lastname@rte-france.com
%   Réseau de Transport d'Electricité (French Transmission System Operator)
%   Département Expertise Système, Immeuble "Le Colbert"
%   9 rue de la Porte de Buc, 78000 Versailles Cedex, France
%   March 4th, 2016
%
function mpc = nesta_case6515_rte
mpc.version = '2';
mpc.baseMVA = 100.0;

%% bus data
%	bus_i	type	Pd	Qd	Gs	Bs	area	Vm	Va	baseKV	zone	Vmax	Vmin
mpc.bus = [
	1	 1	 0.0	 0.0	 0.0	 0.0	 1	    0.99995	  -29.81475	 45.0	 1	    1.00000	    0.88889;
	2	 1	 0.0	 0.0	 0.0	 0.0	 1	    1.05486	  -12.95694	 63.0	 1	    1.06349	    0.93651;
	3	 1	 14.8	 3.8	 0.0	 0.0	 1	    0.98519	  -31.11817	 63.0	 1	    1.07937	    0.95238;
	4	 1	 49.6	 2.8	 0.0	 0.0	 1	    1.04238	  -31.42676	 90.0	 1	    1.08889	    0.93333;
	5	 1	 12.9	 0.9	 0.0	 0.0	 1	    1.02168	  -56.12343	 63.0	 1	    1.06349	    0.95238;
	6	 1	 13.0	 5.3	 0.0	 0.0	 1	    1.03500	  -12.58596	 63.0	 1	    1.07937	    0.92063;
	7	 1	 2.3	 0.2	 0.0	 0.0	 1	    1.04564	  -13.85951	 63.0	 1	    1.07937	    0.92063;
	8	 1	 15.8	 -0.3	 0.0	 0.0	 1	    1.06007	  -25.12157	 225.0	 1	    1.08889	    0.88889;
	9	 1	 14.9	 0.0	 0.0	 0.0	 1	    1.03717	  -35.02893	 63.0	 1	    1.06349	    0.93651;
	10	 1	 0.0	 0.0	 0.0	 0.0	 1	    1.04087	  -29.78656	 90.0	 1	    1.07778	    0.92222;
	11	 1	 33.2	 4.9	 0.0	 0.0	 1	    1.04087	  -29.78656	 90.0	 1	    1.07778	    0.92222;
	12	 1	 0.0	 0.0	 0.0	 0.0	 1	    1.02419	  -19.06081	 63.0	 1	    1.07937	    0.95238;
	13	 1	 0.0	 0.0	 0.0	 0.0	 1	    1.08829	   -3.47294	 380.0	 1	    1.10263	    1.05271;
	14	 1	 63.2	 13.3	 0.0	 30.4	 1	    1.06650	  -34.98121	 90.0	 1	    1.07778	    0.97778;
	15	 1	 0.0	 0.0	 0.0	 0.0	 1	    1.02973	  -14.82367	 63.0	 1	    1.07937	    0.92063;
	16	 1	 13.9	 1.9	 0.0	 0.0	 1	    1.02901	  -19.66910	 63.0	 1	    1.07937	    0.92063;
	17	 1	 10.9	 0.1	 0.0	 0.0	 1	    1.04820	  -28.52828	 90.0	 1	    1.06667	    0.97778;
	18	 1	 0.0	 0.0	 0.0	 0.0	 1	    0.96529	  -24.76024	 45.0	 1	    1.00000	    0.88889;
	19	 1	 1.0	 0.0	 0.0	 0.0	 1	    1.03226	  -22.66197	 63.0	 1	    1.06349	    0.93651;
	20	 1	 5.6	 -18.0	 0.0	 0.0	 1	    0.96600	  -24.79738	 45.0	 1	    1.00000	    0.88889;
	21	 1	 7.6	 -1.6	 0.0	 0.0	 1	    1.02444	  -16.59207	 90.0	 1	    1.06667	    0.97778;
	22	 1	 18.5	 1.0	 0.0	 0.0	 1	    1.03931	  -24.42490	 63.0	 1	    1.07937	    0.95238;
	23	 1	 22.4	 2.2	 0.0	 0.0	 1	    1.05084	  -29.28438	 63.0	 1	    1.06349	    0.93651;
	24	 1	 17.0	 -1.5	 0.0	 0.0	 1	    1.04455	  -29.91220	 90.0	 1	    1.11111	    0.95556;
	25	 1	 54.7	 -1.1	 0.0	 0.0	 1	    1.08009	  -26.37443	 90.0	 1	    1.10000	    0.94444;
	26	 1	 15.1	 10.6	 0.0	 0.0	 1	    1.03175	  -25.24203	 90.0	 1	    1.06667	    0.97778;
	27	 1	 0.0	 0.0	 0.0	 0.0	 1	    1.06962	  -20.51048	 225.0	 1	    1.08444	    1.00444;
	28	 1	 0.9	 -0.2	 0.0	 0.0	 1	    1.03552	  -31.24267	 63.0	 1	    1.07937	    0.95238;
	29	 1	 76.5	 9.4	 0.0	 0.0	 1	    1.03213	  -21.10584	 63.0	 1	    1.06349	    0.96825;
	30	 1	 39.9	 3.5	 0.0	 0.0	 1	    1.03965	  -30.15387	 90.0	 1	    1.08889	    0.93333;
	31	 1	 0.0	 0.0	 0.0	 0.0	 1	    1.06069	  -26.80404	 63.0	 1	    1.06349	    0.93651;
	32	 1	 0.0	 0.0	 0.0	 0.0	 1	    1.09540	  -23.85616	 150.0	 1	    1.10667	    0.90000;
	33	 1	 0.0	 0.0	 0.0	 0.0	 1	    1.07238	  -23.49955	 225.0	 1	    1.08889	    0.93333;
	34	 1	 0.0	 0.0	 0.0	 0.0	 1	    1.07921	  -23.64814	 225.0	 1	    1.08889	    0.93333;
	35	 1	 0.0	 0.0	 0.0	 0.0	 1	    1.06372	  -19.30179	 380.0	 1	    1.10526	    1.03947;
	36	 1	 0.0	 0.0	 0.0	 0.0	 1	    1.03947	  -18.14832	 380.0	 1	    1.10526	    1.03947;
	37	 1	 -2.7	 3.0	 0.0	 0.0	 1	    1.02344	  -17.80481	 63.0	 1	    1.07937	    0.92063;
	38	 1	 5.0	 -1.0	 0.0	 0.0	 1	    1.04767	  -28.18569	 63.0	 1	    1.09524	    0.93651;
	39	 1	 43.6	 -2.9	 0.0	 0.0	 1	    1.03196	  -42.57521	 90.0	 1	    1.07778	    0.97778;
	40	 1	 38.1	 4.1	 0.0	 0.0	 1	    1.05760	  -32.99649	 90.0	 1	    1.07778	    0.97778;
	41	 1	 0.0	 0.0	 0.0	 0.0	 1	    1.07634	  -30.83231	 225.0	 1	    1.08889	    1.00444;
	42	 1	 0.0	 0.0	 0.0	 0.0	 1	    1.13050	  -14.21373	 63.0	 1	    1.13099	    0.95238;
	43	 1	 3.2	 2.7	 0.0	 0.0	 1	    1.04447	  -32.30056	 90.0	 1	    1.07778	    0.97778;
	44	 1	 13.3	 0.1	 0.0	 0.0	 1	    1.02558	  -51.59533	 63.0	 1	    1.06349	    0.95238;
	45	 1	 3.8	 1.6	 0.0	 0.0	 1	    1.02770	  -35.45354	 90.0	 1	    1.06667	    0.97778;
	46	 1	 0.0	 0.0	 0.0	 0.0	 1	    1.05408	  -25.65168	 63.0	 1	    1.06349	    0.93651;
	47	 2	 0.0	 0.0	 0.0	 0.0	 1	    1.06349	  -23.14157	 63.0	 1	    1.06349	    0.93651;
	48	 1	 40.4	 5.6	 0.0	 0.0	 1	    1.03096	  -31.86240	 90.0	 1	    1.07778	    0.92222;
	49	 1	 9.8	 -1.9	 0.0	 0.0	 1	    1.03611	  -21.81589	 63.0	 1	    1.06349	    0.93651;
	50	 1	 0.0	 0.0	 0.0	 0.0	 1	    1.06255	  -30.61599	 63.0	 1	    1.06927	    0.93651;
	51	 1	 0.0	 0.0	 0.0	 0.0	 1	    1.05034	  -25.60330	 225.0	 1	    1.08889	    0.93333;
	52	 1	 6.5	 2.9	 0.0	 0.0	 1	    1.04185	  -37.46098	 90.0	 1	    1.06667	    0.97778;
	53	 1	 0.0	 -1.3	 0.0	 0.0	 1	    1.00640	  -33.81499	 63.0	 1	    1.04762	    0.95238;
	54	 1	 0.3	 -0.3	 0.0	 0.0	 1	    1.04156	  -18.73209	 90.0	 1	    1.06667	    0.97778;
	55	 1	 50.9	 12.3	 0.0	 0.0	 1	    1.08373	  -34.80230	 225.0	 1	    1.08889	    1.00444;
	56	 1	 75.5	 20.5	 0.0	 0.0	 1	    1.07705	  -31.55843	 225.0	 1	    1.08889	    1.00444;
	57	 2	 0.0	 0.0	 0.0	 0.0	 1	    1.06741	   -8.00365	 63.0	 1	    1.07937	    0.92063;
	58	 1	 154.0	 36.4	 0.0	 0.0	 1	    1.08359	  -34.81910	 225.0	 1	    1.08889	    1.00444;
	59	 1	 5.0	 1.0	 0.0	 0.0	 1	    1.00561	  -29.24046	 63.0	 1	    1.07937	    0.95238;
	60	 1	 0.0	 0.0	 0.0	 0.0	 1	    1.03886	  -23.85081	 63.0	 1	    1.07937	    0.95238;
	61	 1	 46.3	 11.9	 0.0	 0.0	 1	    1.00769	  -26.01700	 63.0	 1	    1.07937	    0.95238;
	62	 1	 0.0	 0.0	 0.0	 0.0	 1	    1.02212	  -24.02632	 63.0	 1	    1.07937	    0.95238;
	63	 1	 16.8	 2.9	 0.0	 0.0	 1	    1.01970	  -18.05366	 63.0	 1	    1.07937	    0.95238;
	64	 1	 67.3	 7.1	 0.0	 0.0	 1	    1.06838	  -24.19543	 225.0	 1	    1.08889	    0.88889;
	65	 1	 12.0	 2.8	 0.0	 0.0	 1	    1.01982	  -26.72646	 63.0	 1	    1.07937	    0.95238;
	66	 1	 13.0	 -6.4	 0.0	 0.0	 1	    1.03628	  -25.42886	 63.0	 1	    1.06349	    0.93651;
	67	 1	 1.0	 0.0	 0.0	 0.0	 1	    1.04066	  -16.25710	 63.0	 1	    1.07937	    0.92063;
	68	 1	 53.1	 1.1	 0.0	 0.0	 1	    1.02470	  -21.92122	 63.0	 1	    1.06349	    0.93651;
	69	 1	 20.8	 1.3	 0.0	 0.0	 1	    1.04401	  -56.50817	 63.0	 1	    1.06349	    0.95238;
	70	 1	 10.6	 4.2	 0.0	 0.0	 1	    1.03547	  -17.64270	 63.0	 1	    1.07937	    0.95238;
	71	 1	 69.4	 17.5	 0.0	 0.0	 1	    1.03937	  -34.59474	 63.0	 1	    1.04762	    0.95238;
	72	 1	 0.0	 0.0	 0.0	 0.0	 1	    1.08576	  -24.83300	 225.0	 1	    1.08889	    1.00444;
	73	 1	 0.0	 0.0	 0.0	 0.0	 1	    1.08576	  -24.83300	 225.0	 1	    1.08889	    1.00444;
	74	 1	 58.8	 -5.0	 0.0	 0.0	 1	    1.06893	  -24.07598	 225.0	 1	    1.08889	    0.88889;
	75	 1	 25.2	 1.9	 0.0	 0.0	 1	    1.05489	  -26.46491	 90.0	 1	    1.06667	    0.97778;
	76	 1	 5.9	 -2.1	 0.0	 0.0	 1	    1.08453	  -14.90534	 225.0	 1	    1.08889	    0.98667;
	77	 1	 43.7	 0.4	 0.0	 0.0	 1	    1.02278	  -23.91060	 63.0	 1	    1.06349	    0.93651;
	78	 1	 0.0	 0.0	 0.0	 0.0	 1	    1.02808	  -14.91427	 63.0	 1	    1.07937	    0.92063;
	79	 1	 0.0	 0.0	 0.0	 0.0	 1	    1.01223	  -33.06362	 63.0	 1	    1.04762	    0.95238;
	80	 1	 32.4	 10.5	 0.0	 0.0	 1	    1.05090	  -32.79663	 225.0	 1	    1.08889	    1.00444;
	81	 1	 32.4	 9.1	 0.0	 0.0	 1	    1.05092	  -32.79658	 225.0	 1	    1.08889	    1.00444;
	82	 1	 11.3	 0.3	 0.0	 0.0	 1	    1.04150	  -21.53118	 63.0	 1	    1.06349	    0.93651;
	83	 1	 79.0	 24.8	 0.0	 0.0	 1	    1.05953	  -31.99093	 225.0	 1	    1.08889	    1.00444;
	84	 1	 -0.1	 0.4	 0.0	 0.0	 1	    1.06002	  -14.93629	 63.0	 1	    1.06349	    0.93651;
	85	 1	 0.7	 -1.5	 0.0	 0.0	 1	    1.04798	  -13.16884	 63.0	 1	    1.06349	    0.93651;
	86	 1	 48.8	 5.2	 0.0	 0.0	 1	    1.02419	  -44.12093	 90.0	 1	    1.06667	    0.97778;
	87	 1	 0.0	 0.0	 0.0	 0.0	 1	    1.03030	  -18.61290	 63.0	 1	    1.07937	    0.95238;
	88	 1	 14.8	 -1.2	 0.0	 0.0	 1	    1.05358	  -18.29140	 63.0	 1	    1.06349	    0.93651;
	89	 1	 26.2	 0.3	 0.0	 0.0	 1	    1.03990	  -34.96889	 90.0	 1	    1.07778	    0.97778;
	90	 1	 0.2	 -2.3	 0.0	 0.0	 1	    0.96592	  -25.32925	 45.0	 1	    1.00000	    0.88889;
	91	 1	 0.0	 0.0	 0.0	 0.0	 1	    0.96529	  -24.76024	 45.0	 1	    1.00000	    0.88889;
	92	 1	 31.8	 1.1	 0.0	 0.0	 1	    1.03730	  -16.45685	 63.0	 1	    1.06349	    0.96825;
	93	 1	 2.0	 -2.8	 0.0	 0.0	 1	    0.97681	  -25.93119	 45.0	 1	    1.00000	    0.88889;
	94	 1	 18.2	 -4.0	 0.0	 0.0	 1	    1.04380	  -24.90662	 90.0	 1	    1.06667	    0.97778;
	95	 1	 57.2	 9.4	 0.0	 0.0	 1	    1.03696	  -36.99746	 90.0	 1	    1.06667	    0.97778;
	96	 1	 0.9	 -0.2	 0.0	 0.0	 1	    1.05819	  -26.01129	 63.0	 1	    1.06349	    0.93651;
	97	 1	 57.7	 3.8	 0.0	 0.0	 1	    1.06406	  -15.18144	 63.0	 1	    1.07937	    0.92063;
	98	 1	 9.5	 1.0	 0.0	 0.0	 1	    1.03567	  -27.13730	 63.0	 1	    1.07937	    0.95238;
	99	 1	 35.8	 5.9	 0.0	 0.0	 1	    1.01516	  -25.73370	 63.0	 1	    1.07937	    0.95238;
	100	 1	 63.0	 7.8	 0.0	 0.0	 1	    1.01669	  -31.43524	 63.0	 1	    1.06349	    0.93651;
	101	 1	 17.3	 -0.8	 0.0	 0.0	 1	    1.04899	  -15.57304	 63.0	 1	    1.06349	    0.93651;
	102	 2	 0.0	 0.0	 0.0	 0.0	 1	    1.05820	  -12.05074	 63.0	 1	    1.07937	    0.95238;
	103	 1	 12.6	 -1.2	 0.0	 0.0	 1	    1.02779	  -23.76665	 63.0	 1	    1.07937	    0.95238;
	104	 1	 0.0	 0.0	 0.0	 0.0	 1	    1.06097	  -20.90361	 225.0	 1	    1.08889	    0.98667;
	105	 1	 36.9	 2.2	 0.0	 0.0	 1	    1.05043	  -24.20325	 225.0	 1	    1.08889	    0.88889;
	106	 1	 58.2	 10.7	 0.0	 0.0	 1	    1.06111	  -28.90531	 90.0	 1	    1.10000	    0.94444;
	107	 1	 107.0	 14.3	 0.0	 0.0	 1	    1.04713	  -29.53253	 225.0	 1	    1.08444	    1.00889;
	108	 1	 12.2	 -2.4	 0.0	 0.0	 1	    1.05424	  -29.60712	 90.0	 1	    1.07778	    0.97778;
	109	 1	 67.8	 8.7	 0.0	 0.0	 1	    1.06081	  -17.89324	 63.0	 1	    1.06349	    0.93651;
	110	 1	 0.0	 0.0	 0.0	 0.0	 1	    1.04385	  -15.98815	 225.0	 1	    1.08889	    0.93333;
	111	 1	 38.7	 -7.5	 0.0	 0.0	 1	    1.03378	  -18.77716	 63.0	 1	    1.06349	    0.96825;
	112	 1	 0.0	 0.0	 0.0	 0.0	 1	    1.02509	  -32.42701	 63.0	 1	    1.04762	    0.95238;
	113	 1	 0.0	 0.0	 0.0	 0.0	 1	    1.05830	  -28.89611	 225.0	 1	    1.08889	    1.00444;
	114	 1	 13.4	 1.1	 0.0	 0.0	 1	    1.05346	  -30.49957	 63.0	 1	    1.06349	    0.93651;
	115	 1	 0.0	 0.0	 0.0	 0.0	 1	    1.08830	   -3.47303	 380.0	 1	    1.10526	    1.05263;
	116	 1	 0.0	 0.0	 0.0	 0.0	 1	    1.08830	   -3.47303	 380.0	 1	    1.10526	    1.05263;
	117	 1	 14.9	 0.2	 0.0	 0.0	 1	    1.02029	  -31.68457	 63.0	 1	    1.07937	    0.95238;
	118	 1	 2.0	 0.7	 0.0	 0.0	 1	    1.05725	  -26.15999	 90.0	 1	    1.06667	    0.97778;
	119	 1	 40.6	 6.9	 0.0	 0.0	 1	    1.00970	  -16.39060	 63.0	 1	    1.06349	    0.93651;
	120	 1	 22.0	 -2.3	 0.0	 0.0	 1	    1.06162	  -29.09839	 63.0	 1	    1.06349	    0.93651;
	121	 1	 20.8	 1.4	 0.0	 0.0	 1	    1.01982	  -21.05422	 63.0	 1	    1.07937	    0.92063;
	122	 2	 0.0	 0.0	 0.0	 0.0	 1	    1.03039	  -24.40200	 63.0	 1	    1.07937	    0.95238;
	123	 1	 12.0	 4.6	 0.0	 0.0	 1	    1.02704	  -24.57422	 63.0	 1	    1.07937	    0.95238;
	124	 1	 8.0	 -0.4	 0.0	 0.0	 1	    1.03841	  -25.66987	 90.0	 1	    1.06667	    0.97778;
	125	 1	 11.1	 0.4	 0.0	 0.0	 1	    1.06371	  -21.16139	 63.0	 1	    1.07937	    0.95238;
	126	 1	 0.2	 0.8	 0.0	 0.0	 1	    1.04597	  -11.63080	 63.0	 1	    1.06349	    0.93651;
	127	 1	 14.7	 2.7	 0.0	 0.0	 1	    1.02075	  -35.60019	 63.0	 1	    1.04762	    0.95238;
	128	 1	 13.8	 7.2	 0.0	 0.0	 1	    1.05143	   -8.99138	 63.0	 1	    1.06349	    0.96825;
	129	 1	 19.1	 10.8	 0.0	 0.0	 1	    1.05750	   -6.91712	 63.0	 1	    1.06349	    0.96825;
	130	 1	 0.0	 0.0	 0.0	 0.0	 1	    1.07727	   -7.29700	 225.0	 1	    1.08444	    1.00889;
	131	 1	 119.3	 12.0	 0.0	 0.0	 1	    1.07546	  -15.25570	 225.0	 1	    1.08444	    1.00889;
	132	 2	 9.4	 0.0	 0.0	 0.0	 1	    1.07738	   -6.79799	 90.0	 1	    1.07778	    0.92222;
	133	 1	 2.7	 0.4	 0.0	 0.0	 1	    0.99500	  -36.51832	 63.0	 1	    1.04762	    0.95238;
	134	 1	 101.1	 27.4	 0.0	 0.0	 1	    1.03729	  -33.29945	 225.0	 1	    1.08889	    1.00444;
	135	 1	 0.0	 0.0	 0.0	 0.0	 1	    1.08455	  -34.63040	 225.0	 1	    1.08889	    1.00444;
	136	 1	 23.9	 1.4	 0.0	 0.0	 1	    1.04473	  -42.14850	 90.0	 1	    1.07778	    0.97778;
	137	 2	 8.7	 -3.0	 0.0	 0.0	 1	    1.02988	  -16.24077	 63.0	 1	    1.06349	    0.96825;
	138	 1	 0.0	 0.0	 0.0	 0.0	 1	    1.06147	  -16.98660	 150.0	 1	    1.08000	    0.96667;
	139	 1	 8.0	 7.1	 0.0	 0.0	 1	    1.04749	   -7.27875	 63.0	 1	    1.07937	    0.92063;
	140	 1	 0.0	 0.0	 0.0	 80.0	 1	    1.07744	   -4.05723	 225.0	 1	    1.08889	    1.00000;
	141	 1	 0.0	 0.0	 0.0	 0.0	 1	    1.08880	   -0.81314	 380.0	 1	    1.10526	    1.05263;
	142	 1	 22.4	 7.4	 0.0	 0.0	 1	    1.00972	  -28.73099	 63.0	 1	    1.07937	    0.95238;
	143	 1	 0.0	 0.0	 0.0	 0.0	 1	    1.03819	  -23.90297	 225.0	 1	    1.08889	    0.98667;
	144	 1	 16.0	 5.0	 0.0	 0.0	 1	    1.05361	  -27.66208	 90.0	 1	    1.11111	    0.95556;
	145	 1	 23.4	 9.0	 0.0	 0.0	 1	    1.07002	  -23.89773	 225.0	 1	    1.08889	    0.96889;
	146	 1	 0.0	 0.0	 0.0	 0.0	 1	    1.08232	  -20.60324	 380.0	 1	    1.10526	    1.00000;
	147	 1	 30.0	 5.5	 0.0	 0.0	 1	    1.04203	  -29.51328	 63.0	 1	    1.06349	    0.93651;
	148	 1	 6.6	 1.2	 0.0	 0.0	 1	    1.05032	  -20.06375	 63.0	 1	    1.06349	    0.93651;
	149	 1	 16.9	 4.1	 0.0	 0.0	 1	    1.04794	  -36.68947	 90.0	 1	    1.06667	    0.97778;
	150	 1	 48.5	 3.2	 0.0	 0.0	 1	    1.05861	  -27.27632	 63.0	 1	    1.06349	    0.93651;
	151	 1	 0.0	 0.0	 0.0	 0.0	 1	    1.01186	  -21.83355	 63.0	 1	    1.06349	    0.96825;
	152	 1	 45.3	 12.0	 0.0	 7.7	 1	    1.01177	  -20.58037	 63.0	 1	    1.06349	    0.96825;
	153	 1	 27.3	 -5.5	 0.0	 0.0	 1	    1.04818	  -23.85952	 63.0	 1	    1.06349	    0.93651;
	154	 1	 0.0	 0.0	 0.0	 0.0	 1	    1.07098	  -20.05141	 225.0	 1	    1.08889	    0.93333;
	155	 2	 0.0	 0.0	 0.0	 0.0	 1	    1.02975	   -5.92634	 63.0	 1	    1.07937	    0.92063;
	156	 1	 0.0	 0.0	 0.0	 0.0	 1	    1.01182	  -21.83879	 63.0	 1	    1.06349	    0.96825;
	157	 1	 0.0	 -2.2	 0.0	 0.0	 1	    0.93824	  -27.63112	 45.0	 1	    1.00000	    0.88889;
	158	 2	 0.0	 0.0	 0.0	 0.0	 1	    0.98018	  -25.54825	 45.0	 1	    1.00000	    0.88889;
	159	 1	 0.0	 0.0	 0.0	 0.0	 1	    1.04516	  -29.68472	 63.0	 1	    1.06349	    0.93651;
	160	 1	 41.7	 5.9	 0.0	 0.0	 1	    1.05832	  -22.98266	 225.0	 1	    1.08889	    0.88889;
	161	 1	 43.7	 10.0	 0.0	 0.0	 1	    1.05814	  -22.98644	 225.0	 1	    1.08889	    0.88889;
	162	 1	 -0.3	 -1.6	 0.0	 0.0	 1	    1.04229	  -21.88785	 90.0	 1	    1.06667	    0.97778;
	163	 1	 0.0	 0.0	 0.0	 0.0	 1	    1.03201	  -24.65297	 63.0	 1	    1.07937	    0.95238;
	164	 1	 0.0	 0.0	 0.0	 0.0	 1	    1.03201	  -24.65297	 63.0	 1	    1.07937	    0.95238;
	165	 1	 16.5	 14.6	 0.0	 0.0	 1	    1.07366	  -31.92624	 20.0	 1	    1.15000	    0.80000;
	166	 1	 13.3	 3.2	 0.0	 0.0	 1	    1.04877	  -36.20869	 90.0	 1	    1.06667	    0.97778;
	167	 1	 17.8	 -0.8	 0.0	 0.0	 1	    1.04380	  -36.69402	 90.0	 1	    1.06667	    0.97778;
	168	 1	 0.0	 0.0	 0.0	 0.0	 1	    1.07379	  -31.91996	 225.0	 1	    1.08444	    1.00444;
	169	 1	 9.9	 -0.9	 0.0	 0.0	 1	    1.02852	  -28.30672	 90.0	 1	    1.06667	    0.97778;
	170	 1	 79.8	 13.5	 0.0	 0.0	 1	    1.04070	  -34.68655	 90.0	 1	    1.07778	    0.97778;
	171	 1	 28.0	 0.8	 0.0	 30.0	 1	    1.05551	  -38.61125	 90.0	 1	    1.07778	    0.97778;
	172	 1	 0.0	 0.0	 0.0	 0.0	 1	    1.06149	  -34.13388	 225.0	 1	    1.08889	    1.00444;
	173	 1	 28.5	 8.0	 0.0	 0.0	 1	    1.07335	  -25.72828	 90.0	 1	    1.08889	    0.93333;
	174	 1	 59.7	 11.6	 0.0	 0.0	 1	    1.07292	  -29.48307	 90.0	 1	    1.11111	    0.95556;
	175	 1	 0.0	 0.0	 0.0	 0.0	 1	    1.03261	   -5.49435	 63.0	 1	    1.07937	    0.92063;
	176	 2	 0.0	 0.0	 0.0	 0.0	 1	    1.07874	   -3.73598	 150.0	 1	    1.10000	    0.90000;
	177	 1	 0.0	 0.0	 0.0	 0.0	 1	    1.07661	  -32.08092	 225.0	 1	    1.08889	    1.00444;
	178	 1	 0.0	 0.0	 0.0	 0.0	 1	    1.07661	  -32.08092	 225.0	 1	    1.08889	    1.00444;
	179	 1	 0.0	 0.0	 0.0	 0.0	 1	    1.02095	  -35.58632	 63.0	 1	    1.04762	    0.95238;
	180	 1	 0.0	 0.0	 0.0	 0.0	 1	    1.07661	  -32.08091	 225.0	 1	    1.08889	    1.00444;
	181	 1	 12.7	 -5.3	 0.0	 0.0	 1	    1.05502	  -17.03262	 63.0	 1	    1.07937	    0.92063;
	182	 1	 16.0	 3.1	 0.0	 0.0	 1	    1.04344	  -16.39947	 63.0	 1	    1.06349	    0.93651;
	183	 1	 5.5	 -1.7	 0.0	 0.0	 1	    1.04051	  -28.56718	 63.0	 1	    1.07937	    0.95238;
	184	 1	 5.0	 1.4	 0.0	 0.0	 1	    1.07002	  -29.06510	 90.0	 1	    1.07778	    0.97778;
	185	 1	 30.6	 2.7	 0.0	 0.0	 1	    1.00109	  -29.65503	 63.0	 1	    1.07937	    0.95238;
	186	 1	 1.2	 0.2	 0.0	 0.0	 1	    1.03921	  -22.14044	 90.0	 1	    1.06667	    0.97778;
	187	 2	 0.0	 0.0	 0.0	 0.0	 1	    1.03965	   -8.37690	 63.0	 1	    1.07937	    0.92063;
	188	 1	 0.0	 0.0	 0.0	 0.0	 1	    1.08269	   -7.31182	 63.0	 1	    1.09875	    0.92063;
	189	 1	 16.8	 1.8	 0.0	 0.0	 1	    1.02597	  -13.12618	 63.0	 1	    1.07937	    0.92063;
	190	 2	 0.0	 0.0	 0.0	 0.0	 1	    0.96405	  -25.98655	 45.0	 1	    1.00000	    0.88889;
	191	 1	 15.4	 -1.1	 0.0	 0.0	 1	    1.02810	  -28.16608	 90.0	 1	    1.06667	    0.97778;
	192	 1	 9.9	 -0.0	 0.0	 0.0	 1	    1.06912	   -8.42251	 63.0	 1	    1.07937	    0.92063;
	193	 1	 0.1	 0.7	 0.0	 0.0	 1	    1.05855	  -29.41996	 225.0	 1	    1.08889	    1.00444;
	194	 2	 0.7	 -1.6	 0.0	 0.0	 1	    1.05443	  -13.96226	 63.0	 1	    1.07937	    0.92063;
	195	 1	 0.0	 0.0	 0.0	 0.0	 1	    1.06362	  -33.38943	 63.0	 1	    1.06362	    0.95238;
	196	 1	 0.0	 0.0	 0.0	 0.0	 1	    1.06362	  -33.38947	 63.0	 1	    1.06362	    0.95238;
	197	 1	 27.5	 -0.6	 0.0	 15.0	 1	    1.04748	  -21.32643	 63.0	 1	    1.07937	    0.92063;
	198	 1	 11.1	 -0.8	 0.0	 0.0	 1	    1.01930	  -14.05606	 63.0	 1	    1.07937	    0.92063;
	199	 1	 12.6	 2.7	 0.0	 0.0	 1	    1.03157	  -43.59686	 90.0	 1	    1.06667	    0.97778;
	200	 1	 0.0	 0.0	 0.0	 0.0	 1	    1.08786	  -10.31142	 225.0	 1	    1.08889	    1.00000;
...
];

%% generator data
%	bus	Pg	Qg	Qmax	Qmin	Vg	mBase	status	Pmax	Pmin	Pc1	Pc2	Qc1min	Qc1max	Qc2min	Qc2max	ramp_agc	ramp_10	ramp_30	ramp_q	apf
mpc.gen = [
	4	 0.0	 0.0	 0.0	 0.0	 1.04238	 100.0	 0	 12.0	 0.0	 0.0	 0.0	 0.0	 0.0	 0.0	 0.0	 0.0	 0.0	 0.0	 0.0	 0.0;
	4	 0.0	 0.0	 0.0	 0.0	 1.04238	 100.0	 0	 10.0	 0.0	 0.0	 0.0	 0.0	 0.0	 0.0	 0.0	 0.0	 0.0	 0.0	 0.0	 0.0;
	5	 0.0	 0.0	 0.0	 0.0	 1.02168	 100.0	 0	 9.1	 0.0	 0.0	 0.0	 0.0	 0.0	 0.0	 0.0	 0.0	 0.0	 0.0	 0.0	 0.0;
	11	 28.0	 0.0	 0.0	 0.0	 1.04087	 100.0	 1	 28.0	 0.0	 0.0	 0.0	 0.0	 0.0	 0.0	 0.0	 0.0	 0.0	 0.0	 0.0	 0.0;
	11	 0.0	 0.0	 0.0	 0.0	 1.04087	 100.0	 0	 18.0	 0.0	 0.0	 0.0	 0.0	 0.0	 0.0	 0.0	 0.0	 0.0	 0.0	 0.0	 0.0;
	17	 0.0	 0.0	 0.0	 0.0	 1.0482	 100.0	 0	 8.2	 0.0	 0.0	 0.0	 0.0	 0.0	 0.0	 0.0	 0.0	 0.0	 0.0	 0.0	 0.0;
	19	 0.0	 0.0	 0.0	 0.0	 1.03226	 100.0	 0	 1.2	 0.0	 0.0	 0.0	 0.0	 0.0	 0.0	 0.0	 0.0	 0.0	 0.0	 0.0	 0.0;
	22	 0.0	 0.0	 0.0	 0.0	 1.03931	 100.0	 0	 10.0	 0.0	 0.0	 0.0	 0.0	 0.0	 0.0	 0.0	 0.0	 0.0	 0.0	 0.0	 0.0;
	24	 0.0	 0.0	 0.0	 0.0	 1.04455	 100.0	 0	 16.1	 0.0	 0.0	 0.0	 0.0	 0.0	 0.0	 0.0	 0.0	 0.0	 0.0	 0.0	 0.0;
	24	 0.0	 0.0	 0.0	 0.0	 1.04455	 100.0	 0	 35.5	 0.0	 0.0	 0.0	 0.0	 0.0	 0.0	 0.0	 0.0	 0.0	 0.0	 0.0	 0.0;
	25	 36.0	 0.0	 0.0	 0.0	 1.08009	 100.0	 1	 36.0	 0.0	 0.0	 0.0	 0.0	 0.0	 0.0	 0.0	 0.0	 0.0	 0.0	 0.0	 0.0;
	25	 0.0	 0.0	 0.0	 0.0	 1.08009	 100.0	 0	 27.2	 0.0	 0.0	 0.0	 0.0	 0.0	 0.0	 0.0	 0.0	 0.0	 0.0	 0.0	 0.0;
	40	 0.0	 0.0	 0.0	 0.0	 1.0576	 100.0	 0	 8.0	 0.0	 0.0	 0.0	 0.0	 0.0	 0.0	 0.0	 0.0	 0.0	 0.0	 0.0	 0.0;
	47	 9.824	 -2.714	 9.5	 -10.0	 1.06349	 100.0	 1	 16.0	 0.0	 0.0	 0.0	 0.0	 0.0	 0.0	 0.0	 0.0	 0.0	 0.0	 0.0	 0.0;
	47	 9.824	 -2.714	 9.5	 -10.0	 1.06349	 100.0	 1	 16.0	 0.0	 0.0	 0.0	 0.0	 0.0	 0.0	 0.0	 0.0	 0.0	 0.0	 0.0	 0.0;
	48	 0.0	 0.0	 0.0	 0.0	 1.03096	 100.0	 0	 23.0	 0.0	 0.0	 0.0	 0.0	 0.0	 0.0	 0.0	 0.0	 0.0	 0.0	 0.0	 0.0;
	48	 0.0	 0.0	 0.0	 0.0	 1.03096	 100.0	 0	 24.0	 0.0	 0.0	 0.0	 0.0	 0.0	 0.0	 0.0	 0.0	 0.0	 0.0	 0.0	 0.0;
	57	 13.0	 0.9	 1.0	 0.9	 1.06741	 100.0	 1	 13.0	 0.0	 0.0	 0.0	 0.0	 0.0	 0.0	 0.0	 0.0	 0.0	 0.0	 0.0	 0.0;
	64	 0.0	 0.0	 0.0	 0.0	 1.06838	 100.0	 0	 24.0	 0.0	 0.0	 0.0	 0.0	 0.0	 0.0	 0.0	 0.0	 0.0	 0.0	 0.0	 0.0;
	64	 0.0	 0.0	 0.0	 0.0	 1.06838	 100.0	 0	 27.6	 0.0	 0.0	 0.0	 0.0	 0.0	 0.0	 0.0	 0.0	 0.0	 0.0	 0.0	 0.0;
	69	 0.0	 0.0	 0.0	 0.0	 1.04401	 100.0	 0	 30.04	 0.0	 0.0	 0.0	 0.0	 0.0	 0.0	 0.0	 0.0	 0.0	 0.0	 0.0	 0.0;
	70	 0.0	 0.0	 0.0	 0.0	 1.03547	 100.0	 0	 23.0	 0.0	 0.0	 0.0	 0.0	 0.0	 0.0	 0.0	 0.0	 0.0	 0.0	 0.0	 0.0;
	85	 0.0	 0.0	 0.0	 0.0	 1.04798	 100.0	 0	 6.68	 0.0	 0.0	 0.0	 0.0	 0.0	 0.0	 0.0	 0.0	 0.0	 0.0	 0.0	 0.0;
	86	 0.0	 0.0	 0.0	 0.0	 1.02419	 100.0	 0	 9.2	 0.0	 0.0	 0.0	 0.0	 0.0	 0.0	 0.0	 0.0	 0.0	 0.0	 0.0	 0.0;
	102	 46.0	 -0.543	 21.0	 -9.0	 1.0582	 100.0	 1	 46.0	 0.0	 0.0	 0.0	 0.0	 0.0	 0.0	 0.0	 0.0	 0.0	 0.0	 0.0	 0.0;
	122	 12.0	 5.0	 5.0	 -2.0	 1.03039	 100.0	 1	 12.0	 0.0	 0.0	 0.0	 0.0	 0.0	 0.0	 0.0	 0.0	 0.0	 0.0	 0.0	 0.0;
	124	 0.0	 0.0	 0.0	 0.0	 1.03841	 100.0	 0	 9.0	 0.0	 0.0	 0.0	 0.0	 0.0	 0.0	 0.0	 0.0	 0.0	 0.0	 0.0	 0.0;
	125	 26.0	 0.0	 0.0	 0.0	 1.06371	 100.0	 1	 26.0	 0.0	 0.0	 0.0	 0.0	 0.0	 0.0	 0.0	 0.0	 0.0	 0.0	 0.0	 0.0;
	125	 12.0	 0.0	 0.0	 0.0	 1.06371	 100.0	 1	 12.0	 0.0	 0.0	 0.0	 0.0	 0.0	 0.0	 0.0	 0.0	 0.0	 0.0	 0.0	 0.0;
	132	 5.333	 1.272	 3.0	 -3.0	 1.07738	 100.0	 1	 17.0	 0.0	 0.0	 0.0	 0.0	 0.0	 0.0	 0.0	 0.0	 0.0	 0.0	 0.0	 0.0;
	132	 0.0	 0.8	 1.0	 -1.0	 1.07738	 100.0	 0	 4.0	 0.0	 0.0	 0.0	 0.0	 0.0	 0.0	 0.0	 0.0	 0.0	 0.0	 0.0	 0.0;
	132	 0.0	 0.8	 3.0	 -3.0	 1.07738	 100.0	 0	 14.0	 0.0	 0.0	 0.0	 0.0	 0.0	 0.0	 0.0	 0.0	 0.0	 0.0	 0.0	 0.0;
	132	 0.0	 0.8	 3.0	 -3.0	 1.07738	 100.0	 0	 14.0	 0.0	 0.0	 0.0	 0.0	 0.0	 0.0	 0.0	 0.0	 0.0	 0.0	 0.0	 0.0;
	137	 0.0	 -0.2	 0.8	 -0.8	 1.02988	 100.0	 0	 18.0	 0.0	 0.0	 0.0	 0.0	 0.0	 0.0	 0.0	 0.0	 0.0	 0.0	 0.0	 0.0;
	137	 18.0	 -0.8	 0.8	 -0.8	 1.02988	 100.0	 1	 18.0	 0.0	 0.0	 0.0	 0.0	 0.0	 0.0	 0.0	 0.0	 0.0	 0.0	 0.0	 0.0;
	155	 0.0	 0.47	 1.76	 -1.76	 1.02975	 100.0	 0	 5.3	 0.0	 0.0	 0.0	 0.0	 0.0	 0.0	 0.0	 0.0	 0.0	 0.0	 0.0	 0.0;
	158	 0.0	 10.0	 10.0	 -13.0	 0.98018	 100.0	 1	 17.9	 0.0	 0.0	 0.0	 0.0	 0.0	 0.0	 0.0	 0.0	 0.0	 0.0	 0.0	 0.0;
	158	 0.0	 10.0	 10.0	 -13.0	 0.98018	 100.0	 1	 17.9	 0.0	 0.0	 0.0	 0.0	 0.0	 0.0	 0.0	 0.0	 0.0	 0.0	 0.0	 0.0;
	176	 0.0	 0.78	 10.0	 -4.0	 1.07874	 100.0	 0	 30.0	 0.0	 0.0	 0.0	 0.0	 0.0	 0.0	 0.0	 0.0	 0.0	 0.0	 0.0	 0.0;
	187	 0.0	 1.92	 8.0	 -8.0	 1.03965	 100.0	 0	 11.0	 0.0	 0.0	 0.0	 0.0	 0.0	 0.0	 0.0	 0.0	 0.0	 0.0	 0.0	 0.0;
	187	 0.0	 1.91	 2.0	 -2.0	 1.03965	 100.0	 0	 11.0	 0.0	 0.0	 0.0	 0.0	 0.0	 0.0	 0.0	 0.0	 0.0	 0.0	 0.0	 0.0;
	190	 0.0	 -0.37	 14.0	 -14.0	 0.96405	 100.0	 0	 30.0	 0.0	 0.0	 0.0	 0.0	 0.0	 0.0	 0.0	 0.0	 0.0	 0.0	 0.0	 0.0;
	192	 23.5	 0.0	 0.0	 0.0	 1.06912	 100.0	 1	 23.5	 0.0	 0.0	 0.0	 0.0	 0.0	 0.0	 0.0	 0.0	 0.0	 0.0	 0.0	 0.0;
	194	 8.705	 0.9	 1.0	 0.9	 1.05443	 100.0	 1	 15.0	 0.0	 0.0	 0.0	 0.0	 0.0	 0.0	 0.0	 0.0	 0.0	 0.0	 0.0	 0.0;
	194	 8.705	 0.9	 1.0	 0.9	 1.05443	 100.0	 1	 15.0	 0.0	 0.0	 0.0	 0.0	 0.0	 0.0	 0.0	 0.0	 0.0	 0.0	 0.0	 0.0;
	217	 0.0	 0.0	 0.0	 0.0	 1.01754	 100.0	 0	 11.94	 0.0	 0.0	 0.0	 0.0	 0.0	 0.0	 0.0	 0.0	 0.0	 0.0	 0.0	 0.0;
	224	 0.0	 0.79	 2.0	 0.0	 1.07869	 100.0	 0	 6.0	 0.0	 0.0	 0.0	 0.0	 0.0	 0.0	 0.0	 0.0	 0.0	 0.0	 0.0	 0.0;
	227	 0.0	 0.0	 0.0	 0.0	 1.01766	 100.0	 0	 7.5	 0.0	 0.0	 0.0	 0.0	 0.0	 0.0	 0.0	 0.0	 0.0	 0.0	 0.0	 0.0;
	236	 0.0	 0.0	 0.0	 0.0	 1.04691	 100.0	 0	 33.5	 0.0	 0.0	 0.0	 0.0	 0.0	 0.0	 0.0	 0.0	 0.0	 0.0	 0.0	 0.0;
	236	 0.0	 0.0	 0.0	 0.0	 1.04691	 100.0	 0	 24.3	 0.0	 0.0	 0.0	 0.0	 0.0	 0.0	 0.0	 0.0	 0.0	 0.0	 0.0	 0.0;
	238	 0.0	 0.0	 0.0	 0.0	 1.05603	 100.0	 0	 8.0	 0.0	 0.0	 0.0	 0.0	 0.0	 0.0	 0.0	 0.0	 0.0	 0.0	 0.0	 0.0;
	238	 36.0	 0.0	 0.0	 0.0	 1.05603	 100.0	 1	 36.0	 0.0	 0.0	 0.0	 0.0	 0.0	 0.0	 0.0	 0.0	 0.0	 0.0	 0.0	 0.0;
	246	 0.0	 0.0	 2.0	 0.0	 1.03112	 100.0	 0	 1.0	 0.0	 0.0	 0.0	 0.0	 0.0	 0.0	 0.0	 0.0	 0.0	 0.0	 0.0	 0.0;
	246	 0.0	 -0.31	 10.0	 -10.0	 1.03112	 100.0	 0	 31.0	 0.0	 0.0	 0.0	 0.0	 0.0	 0.0	 0.0	 0.0	 0.0	 0.0	 0.0	 0.0;
	246	 0.0	 -0.31	 10.0	 -10.0	 1.03112	 100.0	 0	 31.0	 0.0	 0.0	 0.0	 0.0	 0.0	 0.0	 0.0	 0.0	 0.0	 0.0	 0.0	 0.0;
	246	 0.0	 -0.31	 10.0	 -10.0	 1.03112	 100.0	 0	 31.0	 0.0	 0.0	 0.0	 0.0	 0.0	 0.0	 0.0	 0.0	 0.0	 0.0	 0.0	 0.0;
	256	 26.0	 6.064	 10.0	 -10.0	 1.07091	 100.0	 1	 26.0	 0.0	 0.0	 0.0	 0.0	 0.0	 0.0	 0.0	 0.0	 0.0	 0.0	 0.0	 0.0;
	256	 26.0	 6.064	 10.0	 -10.0	 1.07091	 100.0	 1	 26.0	 0.0	 0.0	 0.0	 0.0	 0.0	 0.0	 0.0	 0.0	 0.0	 0.0	 0.0	 0.0;
	258	 5.812	 0.9	 1.0	 0.9	 1.07211	 100.0	 1	 30.0	 0.0	 0.0	 0.0	 0.0	 0.0	 0.0	 0.0	 0.0	 0.0	 0.0	 0.0	 0.0;
	261	 0.0	 1.78	 4.0	 -4.0	 1.05447	 100.0	 0	 8.0	 0.0	 0.0	 0.0	 0.0	 0.0	 0.0	 0.0	 0.0	 0.0	 0.0	 0.0	 0.0;
	269	 0.0	 0.0	 0.0	 0.0	 1.02676	 100.0	 0	 12.6	 0.0	 0.0	 0.0	 0.0	 0.0	 0.0	 0.0	 0.0	 0.0	 0.0	 0.0	 0.0;
	282	 0.0	 -0.32	 6.1	 -6.2	 1.03112	 100.0	 0	 11.6	 0.0	 0.0	 0.0	 0.0	 0.0	 0.0	 0.0	 0.0	 0.0	 0.0	 0.0	 0.0;
	295	 0.0	 0.0	 0.0	 0.0	 1.0566	 100.0	 0	 25.3	 0.0	 0.0	 0.0	 0.0	 0.0	 0.0	 0.0	 0.0	 0.0	 0.0	 0.0	 0.0;
	296	 12.0	 0.0	 0.0	 0.0	 1.04175	 100.0	 1	 12.0	 0.0	 0.0	 0.0	 0.0	 0.0	 0.0	 0.0	 0.0	 0.0	 0.0	 0.0	 0.0;
	305	 0.0	 -6.56	 9.0	 -9.0	 1.06349	 100.0	 0	 15.0	 0.0	 0.0	 0.0	 0.0	 0.0	 0.0	 0.0	 0.0	 0.0	 0.0	 0.0	 0.0;
	312	 25.8	 0.0	 0.0	 0.0	 1.03309	 100.0	 1	 25.8	 0.0	 0.0	 0.0	 0.0	 0.0	 0.0	 0.0	 0.0	 0.0	 0.0	 0.0	 0.0;
	312	 49.6	 0.0	 0.0	 0.0	 1.03309	 100.0	 1	 49.6	 0.0	 0.0	 0.0	 0.0	 0.0	 0.0	 0.0	 0.0	 0.0	 0.0	 0.0	 0.0;
	317	 0.0	 0.0	 0.0	 0.0	 1.06419	 100.0	 0	 0.0	 -7.0	 0.0	 0.0	 0.0	 0.0	 0.0	 0.0	 0.0	 0.0	 0.0	 0.0	 0.0;
	317	 0.0	 0.0	 0.0	 0.0	 1.06419	 100.0	 0	 0.0	 -7.0	 0.0	 0.0	 0.0	 0.0	 0.0	 0.0	 0.0	 0.0	 0.0	 0.0	 0.0;
	319	 0.0	 0.1	 0.1	 -0.1	 1.03677	 100.0	 0	 10.8	 0.0	 0.0	 0.0	 0.0	 0.0	 0.0	 0.0	 0.0	 0.0	 0.0	 0.0	 0.0;
	325	 0.0	 -0.29	 4.0	 -4.0	 1.03604	 100.0	 0	 11.0	 0.0	 0.0	 0.0	 0.0	 0.0	 0.0	 0.0	 0.0	 0.0	 0.0	 0.0	 0.0;
	332	 0.0	 1.22	 13.0	 -9.0	 1.00337	 100.0	 0	 25.0	 0.0	 0.0	 0.0	 0.0	 0.0	 0.0	 0.0	 0.0	 0.0	 0.0	 0.0	 0.0;
	333	 0.0	 4.72	 13.0	 -9.0	 1.01774	 100.0	 0	 25.0	 0.0	 0.0	 0.0	 0.0	 0.0	 0.0	 0.0	 0.0	 0.0	 0.0	 0.0	 0.0;
	336	 13.0	 4.144	 5.0	 -6.0	 1.04739	 100.0	 1	 13.0	 0.0	 0.0	 0.0	 0.0	 0.0	 0.0	 0.0	 0.0	 0.0	 0.0	 0.0	 0.0;
	338	 0.0	 1.74	 10.0	 -10.0	 1.06333	 100.0	 0	 21.0	 0.0	 0.0	 0.0	 0.0	 0.0	 0.0	 0.0	 0.0	 0.0	 0.0	 0.0	 0.0;
	338	 0.0	 0.1	 0.1	 -0.1	 1.06333	 100.0	 0	 2.0	 0.0	 0.0	 0.0	 0.0	 0.0	 0.0	 0.0	 0.0	 0.0	 0.0	 0.0	 0.0;
	345	 0.0	 0.0	 0.0	 0.0	 1.03166	 100.0	 0	 2.3	 0.0	 0.0	 0.0	 0.0	 0.0	 0.0	 0.0	 0.0	 0.0	 0.0	 0.0	 0.0;
	345	 0.0	 0.0	 0.0	 0.0	 1.03166	 100.0	 0	 19.5	 0.0	 0.0	 0.0	 0.0	 0.0	 0.0	 0.0	 0.0	 0.0	 0.0	 0.0	 0.0;
	348	 0.0	 0.0	 0.0	 0.0	 1.06825	 100.0	 0	 22.0	 0.0	 0.0	 0.0	 0.0	 0.0	 0.0	 0.0	 0.0	 0.0	 0.0	 0.0	 0.0;
	357	 0.0	 0.0	 0.0	 0.0	 1.00576	 100.0	 0	 12.0	 0.0	 0.0	 0.0	 0.0	 0.0	 0.0	 0.0	 0.0	 0.0	 0.0	 0.0	 0.0;
	357	 0.0	 0.0	 0.0	 0.0	 1.00576	 100.0	 0	 12.0	 0.0	 0.0	 0.0	 0.0	 0.0	 0.0	 0.0	 0.0	 0.0	 0.0	 0.0	 0.0;
	364	 130.0	 28.155	 59.0	 -26.0	 1.0507	 100.0	 1	 130.0	 0.0	 0.0	 0.0	 0.0	 0.0	 0.0	 0.0	 0.0	 0.0	 0.0	 0.0	 0.0;
	391	 0.0	 0.0	 0.0	 0.0	 1.05172	 100.0	 0	 2.7	 0.0	 0.0	 0.0	 0.0	 0.0	 0.0	 0.0	 0.0	 0.0	 0.0	 0.0	 0.0;
	409	 0.0	 1.09	 5.0	 -5.0	 0.99437	 100.0	 0	 18.0	 0.0	 0.0	 0.0	 0.0	 0.0	 0.0	 0.0	 0.0	 0.0	 0.0	 0.0	 0.0;
	411	 0.0	 0.0	 0.0	 0.0	 1.03464	 100.0	 0	 10.0	 0.0	 0.0	 0.0	 0.0	 0.0	 0.0	 0.0	 0.0	 0.0	 0.0	 0.0	 0.0;
	411	 0.0	 0.0	 0.0	 0.0	 1.03464	 100.0	 0	 11.5	 0.0	 0.0	 0.0	 0.0	 0.0	 0.0	 0.0	 0.0	 0.0	 0.0	 0.0	 0.0;
	431	 0.0	 0.0	 0.0	 0.0	 1.05068	 100.0	 0	 12.0	 0.0	 0.0	 0.0	 0.0	 0.0	 0.0	 0.0	 0.0	 0.0	 0.0	 0.0	 0.0;
	440	 0.0	 1.25	 10.96	 -11.99	 1.03544	 100.0	 0	 34.25	 0.0	 0.0	 0.0	 0.0	 0.0	 0.0	 0.0	 0.0	 0.0	 0.0	 0.0	 0.0;
	447	 25.0	 8.0	 8.0	 -9.0	 1.02882	 100.0	 1	 25.0	 0.0	 0.0	 0.0	 0.0	 0.0	 0.0	 0.0	 0.0	 0.0	 0.0	 0.0	 0.0;
	462	 0.0	 0.0	 0.0	 0.0	 1.04568	 100.0	 0	 2.4	 0.0	 0.0	 0.0	 0.0	 0.0	 0.0	 0.0	 0.0	 0.0	 0.0	 0.0	 0.0;
	462	 0.0	 0.0	 0.0	 0.0	 1.04568	 100.0	 0	 16.0	 0.0	 0.0	 0.0	 0.0	 0.0	 0.0	 0.0	 0.0	 0.0	 0.0	 0.0	 0.0;
	464	 27.0	 2.27	 6.0	 -3.0	 1.17644	 100.0	 1	 27.0	 1.0	 0.0	 0.0	 0.0	 0.0	 0.0	 0.0	 0.0	 0.0	 0.0	 0.0	 0.0;
	464	 27.0	 2.27	 6.0	 -3.0	 1.17644	 100.0	 1	 27.0	 1.0	 0.0	 0.0	 0.0	 0.0	 0.0	 0.0	 0.0	 0.0	 0.0	 0.0	 0.0;
	466	 0.0	 0.0	 19.0	 -10.0	 1.03229	 100.0	 0	 48.0	 1.0	 0.0	 0.0	 0.0	 0.0	 0.0	 0.0	 0.0	 0.0	 0.0	 0.0	 0.0;
	470	 0.0	 -0.68	 6.0	 -6.0	 1.04499	 100.0	 0	 10.0	 0.0	 0.0	 0.0	 0.0	 0.0	 0.0	 0.0	 0.0	 0.0	 0.0	 0.0	 0.0;
	470	 0.0	 -2.11	 5.4	 -5.4	 1.04499	 100.0	 0	 9.0	 0.0	 0.0	 0.0	 0.0	 0.0	 0.0	 0.0	 0.0	 0.0	 0.0	 0.0	 0.0;
	479	 0.0	 -0.24	 17.0	 -16.0	 1.03272	 100.0	 0	 27.0	 0.0	 0.0	 0.0	 0.0	 0.0	 0.0	 0.0	 0.0	 0.0	 0.0	 0.0	 0.0;
	479	 0.0	 -0.24	 17.0	 -16.0	 1.03272	 100.0	 0	 27.0	 0.0	 0.0	 0.0	 0.0	 0.0	 0.0	 0.0	 0.0	 0.0	 0.0	 0.0	 0.0;
	479	 0.0	 -0.24	 17.0	 -16.0	 1.03272	 100.0	 0	 27.0	 0.0	 0.0	 0.0	 0.0	 0.0	 0.0	 0.0	 0.0	 0.0	 0.0	 0.0	 0.0;
	491	 0.0	 -2.0	 8.0	 -17.0	 1.07246	 100.0	 0	 23.4	 0.0	 0.0	 0.0	 0.0	 0.0	 0.0	 0.0	 0.0	 0.0	 0.0	 0.0	 0.0;
	508	 0.0	 1.77	 2.0	 -2.0	 1.04067	 100.0	 0	 4.0	 0.0	 0.0	 0.0	 0.0	 0.0	 0.0	 0.0	 0.0	 0.0	 0.0	 0.0	 0.0;
	519	 0.0	 0.0	 0.0	 0.0	 1.00353	 100.0	 0	 10.0	 0.0	 0.0	 0.0	 0.0	 0.0	 0.0	 0.0	 0.0	 0.0	 0.0	 0.0	 0.0;
	520	 0.0	 0.0	 0.0	 0.0	 1.03371	 100.0	 0	 12.0	 0.0	 0.0	 0.0	 0.0	 0.0	 0.0	 0.0	 0.0	 0.0	 0.0	 0.0	 0.0;
	530	 8.0	 -0.565	 4.8	 -4.8	 1.06349	 100.0	 1	 8.0	 0.0	 0.0	 0.0	 0.0	 0.0	 0.0	 0.0	 0.0	 0.0	 0.0	 0.0	 0.0;
	530	 8.0	 -0.565	 4.8	 -4.8	 1.06349	 100.0	 1	 8.0	 0.0	 0.0	 0.0	 0.0	 0.0	 0.0	 0.0	 0.0	 0.0	 0.0	 0.0	 0.0;
	530	 8.0	 -0.565	 4.8	 -4.8	 1.06349	 100.0	 1	 8.0	 0.0	 0.0	 0.0	 0.0	 0.0	 0.0	 0.0	 0.0	 0.0	 0.0	 0.0	 0.0;
	537	 0.0	 0.0	 0.0	 0.0	 1.04586	 100.0	 0	 12.0	 0.0	 0.0	 0.0	 0.0	 0.0	 0.0	 0.0	 0.0	 0.0	 0.0	 0.0	 0.0;
	537	 24.0	 0.0	 0.0	 0.0	 1.04586	 100.0	 1	 24.0	 0.0	 0.0	 0.0	 0.0	 0.0	 0.0	 0.0	 0.0	 0.0	 0.0	 0.0	 0.0;
	546	 0.0	 1.9	 2.0	 1.9	 1.0254	 100.0	 1	 9.0	 0.0	 0.0	 0.0	 0.0	 0.0	 0.0	 0.0	 0.0	 0.0	 0.0	 0.0	 0.0;
	548	 0.0	 1.04	 2.0	 0.0	 1.03059	 100.0	 0	 12.0	 0.0	 0.0	 0.0	 0.0	 0.0	 0.0	 0.0	 0.0	 0.0	 0.0	 0.0	 0.0;
	570	 0.0	 0.0	 0.0	 0.0	 1.00542	 100.0	 0	 12.0	 0.0	 0.0	 0.0	 0.0	 0.0	 0.0	 0.0	 0.0	 0.0	 0.0	 0.0	 0.0;
	570	 0.0	 0.0	 0.0	 0.0	 1.00542	 100.0	 0	 30.0	 0.0	 0.0	 0.0	 0.0	 0.0	 0.0	 0.0	 0.0	 0.0	 0.0	 0.0	 0.0;
	570	 0.0	 0.0	 0.0	 0.0	 1.00542	 100.0	 0	 11.5	 0.0	 0.0	 0.0	 0.0	 0.0	 0.0	 0.0	 0.0	 0.0	 0.0	 0.0	 0.0;
	583	 16.0	 5.991	 7.0	 -4.0	 1.02427	 100.0	 1	 16.0	 0.0	 0.0	 0.0	 0.0	 0.0	 0.0	 0.0	 0.0	 0.0	 0.0	 0.0	 0.0;
	585	 0.0	 0.0	 0.0	 0.0	 0.99443	 100.0	 0	 9.0	 0.0	 0.0	 0.0	 0.0	 0.0	 0.0	 0.0	 0.0	 0.0	 0.0	 0.0	 0.0;
	586	 0.0	 4.82	 5.7	 -5.7	 1.05089	 100.0	 0	 9.5	 0.0	 0.0	 0.0	 0.0	 0.0	 0.0	 0.0	 0.0	 0.0	 0.0	 0.0	 0.0;
	589	 0.0	 0.1	 0.1	 -0.1	 1.03245	 100.0	 0	 1.0	 0.0	 0.0	 0.0	 0.0	 0.0	 0.0	 0.0	 0.0	 0.0	 0.0	 0.0	 0.0;
	593	 0.0	 1.09	 10.0	 -10.0	 1.05231	 100.0	 0	 21.0	 0.0	 0.0	 0.0	 0.0	 0.0	 0.0	 0.0	 0.0	 0.0	 0.0	 0.0	 0.0;
	600	 0.0	 0.79	 1.0	 -1.0	 0.98396	 100.0	 0	 6.1	 0.0	 0.0	 0.0	 0.0	 0.0	 0.0	 0.0	 0.0	 0.0	 0.0	 0.0	 0.0;
	610	 45.0	 24.298	 45.0	 -45.0	 1.06441	 100.0	 1	 45.0	 0.0	 0.0	 0.0	 0.0	 0.0	 0.0	 0.0	 0.0	 0.0	 0.0	 0.0	 0.0;
	610	 0.0	 -0.45	 45.0	 -45.0	 1.06441	 100.0	 0	 45.0	 0.0	 0.0	 0.0	 0.0	 0.0	 0.0	 0.0	 0.0	 0.0	 0.0	 0.0	 0.0;
	612	 0.0	 0.0	 0.0	 0.0	 1.00975	 100.0	 0	 12.0	 0.0	 0.0	 0.0	 0.0	 0.0	 0.0	 0.0	 0.0	 0.0	 0.0	 0.0	 0.0;
	612	 0.0	 0.0	 0.0	 0.0	 1.00975	 100.0	 0	 12.0	 0.0	 0.0	 0.0	 0.0	 0.0	 0.0	 0.0	 0.0	 0.0	 0.0	 0.0	 0.0;
	612	 0.0	 0.0	 0.0	 0.0	 1.00975	 100.0	 0	 12.0	 0.0	 0.0	 0.0	 0.0	 0.0	 0.0	 0.0	 0.0	 0.0	 0.0	 0.0	 0.0;
	613	 0.0	 0.0	 0.0	 0.0	 1.01313	 100.0	 0	 35.0	 0.0	 0.0	 0.0	 0.0	 0.0	 0.0	 0.0	 0.0	 0.0	 0.0	 0.0	 0.0;
	613	 0.0	 0.0	 0.0	 0.0	 1.01313	 100.0	 0	 11.5	 0.0	 0.0	 0.0	 0.0	 0.0	 0.0	 0.0	 0.0	 0.0	 0.0	 0.0	 0.0;
	624	 -8.3	 -0.346	 8.3	 -8.3	 1.0827	 100.0	 1	 8.3	 -8.3	 0.0	 0.0	 0.0	 0.0	 0.0	 0.0	 0.0	 0.0	 0.0	 0.0	 0.0;
	633	 0.0	 -2.55	 4.0	 -4.0	 1.05348	 100.0	 0	 7.3	 0.0	 0.0	 0.0	 0.0	 0.0	 0.0	 0.0	 0.0	 0.0	 0.0	 0.0	 0.0;
	636	 0.0	 0.25	 7.0	 0.0	 1.03639	 100.0	 0	 15.0	 0.0	 0.0	 0.0	 0.0	 0.0	 0.0	 0.0	 0.0	 0.0	 0.0	 0.0	 0.0;
	636	 15.0	 0.0	 7.0	 0.0	 1.03639	 100.0	 1	 15.0	 0.0	 0.0	 0.0	 0.0	 0.0	 0.0	 0.0	 0.0	 0.0	 0.0	 0.0	 0.0;
	646	 239.0	 -74.97	 80.0	 -75.0	 1.09503	 100.0	 1	 239.0	 0.0	 0.0	 0.0	 0.0	 0.0	 0.0	 0.0	 0.0	 0.0	 0.0	 0.0	 0.0;
	657	 0.0	 0.51	 7.0	 0.0	 1.07696	 100.0	 0	 7.0	 0.0	 0.0	 0.0	 0.0	 0.0	 0.0	 0.0	 0.0	 0.0	 0.0	 0.0	 0.0;
	675	 0.0	 0.0	 0.0	 0.0	 1.0359	 100.0	 0	 12.0	 0.0	 0.0	 0.0	 0.0	 0.0	 0.0	 0.0	 0.0	 0.0	 0.0	 0.0	 0.0;
	675	 12.0	 0.0	 0.0	 0.0	 1.0359	 100.0	 1	 12.0	 0.0	 0.0	 0.0	 0.0	 0.0	 0.0	 0.0	 0.0	 0.0	 0.0	 0.0	 0.0;
	676	 0.0	 0.0	 0.0	 0.0	 1.02958	 100.0	 0	 7.5	 0.0	 0.0	 0.0	 0.0	 0.0	 0.0	 0.0	 0.0	 0.0	 0.0	 0.0	 0.0;
	676	 0.0	 0.0	 0.0	 0.0	 1.02958	 100.0	 0	 24.0	 0.0	 0.0	 0.0	 0.0	 0.0	 0.0	 0.0	 0.0	 0.0	 0.0	 0.0	 0.0;
	684	 0.0	 0.0	 0.0	 0.0	 1.00094	 100.0	 0	 6.6	 0.0	 0.0	 0.0	 0.0	 0.0	 0.0	 0.0	 0.0	 0.0	 0.0	 0.0	 0.0;
	685	 0.0	 0.0	 0.0	 0.0	 1.05204	 100.0	 0	 12.0	 0.0	 0.0	 0.0	 0.0	 0.0	 0.0	 0.0	 0.0	 0.0	 0.0	 0.0	 0.0;
	689	 0.0	 0.147	 6.0	 -5.0	 0.94612	 100.0	 1	 9.0	 0.0	 0.0	 0.0	 0.0	 0.0	 0.0	 0.0	 0.0	 0.0	 0.0	 0.0	 0.0;
	689	 0.0	 0.147	 6.0	 -5.0	 0.94612	 100.0	 1	 9.0	 0.0	 0.0	 0.0	 0.0	 0.0	 0.0	 0.0	 0.0	 0.0	 0.0	 0.0	 0.0;
	689	 0.0	 1.22	 8.0	 -5.0	 0.94612	 100.0	 0	 11.0	 0.0	 0.0	 0.0	 0.0	 0.0	 0.0	 0.0	 0.0	 0.0	 0.0	 0.0	 0.0;
	689	 0.0	 1.008	 8.0	 -5.0	 0.94612	 100.0	 1	 11.0	 0.0	 0.0	 0.0	 0.0	 0.0	 0.0	 0.0	 0.0	 0.0	 0.0	 0.0	 0.0;
	700	 0.0	 0.0	 0.0	 0.0	 1.0479	 100.0	 0	 32.35	 0.0	 0.0	 0.0	 0.0	 0.0	 0.0	 0.0	 0.0	 0.0	 0.0	 0.0	 0.0;
	700	 0.0	 0.0	 0.0	 0.0	 1.0479	 100.0	 0	 12.0	 0.0	 0.0	 0.0	 0.0	 0.0	 0.0	 0.0	 0.0	 0.0	 0.0	 0.0	 0.0;
	700	 0.0	 0.0	 0.0	 0.0	 1.0479	 100.0	 0	 21.0	 0.0	 0.0	 0.0	 0.0	 0.0	 0.0	 0.0	 0.0	 0.0	 0.0	 0.0	 0.0;
	704	 37.0	 2.995	 15.0	 -17.0	 1.07528	 100.0	 1	 37.0	 0.0	 0.0	 0.0	 0.0	 0.0	 0.0	 0.0	 0.0	 0.0	 0.0	 0.0	 0.0;
	704	 37.0	 2.995	 15.0	 -17.0	 1.07528	 100.0	 1	 37.0	 0.0	 0.0	 0.0	 0.0	 0.0	 0.0	 0.0	 0.0	 0.0	 0.0	 0.0	 0.0;
	703	 37.0	 3.483	 15.0	 -15.0	 1.07831	 100.0	 1	 37.0	 0.0	 0.0	 0.0	 0.0	 0.0	 0.0	 0.0	 0.0	 0.0	 0.0	 0.0	 0.0;
	703	 37.0	 3.483	 15.0	 -15.0	 1.07831	 100.0	 1	 37.0	 0.0	 0.0	 0.0	 0.0	 0.0	 0.0	 0.0	 0.0	 0.0	 0.0	 0.0	 0.0;
	702	 37.0	 3.483	 15.0	 -17.0	 1.07831	 100.0	 1	 37.0	 0.0	 0.0	 0.0	 0.0	 0.0	 0.0	 0.0	 0.0	 0.0	 0.0	 0.0	 0.0;
	702	 37.0	 3.483	 15.0	 -17.0	 1.07831	 100.0	 1	 37.0	 0.0	 0.0	 0.0	 0.0	 0.0	 0.0	 0.0	 0.0	 0.0	 0.0	 0.0	 0.0;
	710	 0.0	 2.0	 2.0	 -2.0	 0.9474	 100.0	 0	 4.0	 0.0	 0.0	 0.0	 0.0	 0.0	 0.0	 0.0	 0.0	 0.0	 0.0	 0.0	 0.0;
	710	 0.0	 2.16	 2.5	 -2.5	 0.9474	 100.0	 0	 4.0	 0.0	 0.0	 0.0	 0.0	 0.0	 0.0	 0.0	 0.0	 0.0	 0.0	 0.0	 0.0;
	710	 0.0	 2.816	 3.0	 -3.0	 0.9474	 100.0	 1	 5.7	 0.0	 0.0	 0.0	 0.0	 0.0	 0.0	 0.0	 0.0	 0.0	 0.0	 0.0	 0.0;
	710	 0.0	 0.5	 6.0	 -5.0	 0.9474	 100.0	 0	 8.5	 0.0	 0.0	 0.0	 0.0	 0.0	 0.0	 0.0	 0.0	 0.0	 0.0	 0.0	 0.0;
	737	 0.0	 0.0	 0.0	 0.0	 1.02645	 100.0	 0	 19.5	 0.0	 0.0	 0.0	 0.0	 0.0	 0.0	 0.0	 0.0	 0.0	 0.0	 0.0	 0.0;
	738	 39.0	 4.151	 18.0	 -18.0	 1.05856	 100.0	 1	 39.0	 0.0	 0.0	 0.0	 0.0	 0.0	 0.0	 0.0	 0.0	 0.0	 0.0	 0.0	 0.0;
	739	 11.5	 0.0	 0.0	 0.0	 1.03654	 100.0	 1	 11.5	 0.0	 0.0	 0.0	 0.0	 0.0	 0.0	 0.0	 0.0	 0.0	 0.0	 0.0	 0.0;
	739	 32.0	 0.0	 0.0	 0.0	 1.03654	 100.0	 1	 32.0	 0.0	 0.0	 0.0	 0.0	 0.0	 0.0	 0.0	 0.0	 0.0	 0.0	 0.0	 0.0;
	741	 0.0	 0.0	 0.0	 0.0	 1.04361	 100.0	 0	 12.0	 0.0	 0.0	 0.0	 0.0	 0.0	 0.0	 0.0	 0.0	 0.0	 0.0	 0.0	 0.0;
	741	 0.0	 0.0	 0.0	 0.0	 1.04361	 100.0	 0	 32.0	 0.0	 0.0	 0.0	 0.0	 0.0	 0.0	 0.0	 0.0	 0.0	 0.0	 0.0	 0.0;
	742	 0.0	 0.1	 0.1	 -0.1	 1.04252	 100.0	 0	 5.0	 0.0	 0.0	 0.0	 0.0	 0.0	 0.0	 0.0	 0.0	 0.0	 0.0	 0.0	 0.0;
	749	 0.0	 3.42	 3.97	 -3.7	 1.06165	 100.0	 0	 6.7	 0.0	 0.0	 0.0	 0.0	 0.0	 0.0	 0.0	 0.0	 0.0	 0.0	 0.0	 0.0;
	749	 0.0	 2.98	 3.54	 -3.0	 1.06165	 100.0	 0	 5.6	 0.0	 0.0	 0.0	 0.0	 0.0	 0.0	 0.0	 0.0	 0.0	 0.0	 0.0	 0.0;
	750	 26.6	 -3.254	 15.0	 -15.0	 1.0634	 100.0	 1	 26.6	 0.0	 0.0	 0.0	 0.0	 0.0	 0.0	 0.0	 0.0	 0.0	 0.0	 0.0	 0.0;
	751	 7.0	 2.0	 2.0	 -2.0	 1.02656	 100.0	 1	 7.0	 1.0	 0.0	 0.0	 0.0	 0.0	 0.0	 0.0	 0.0	 0.0	 0.0	 0.0	 0.0;
	756	 0.0	 -0.31	 3.0	 -3.0	 1.03113	 100.0	 0	 5.0	 -5.0	 0.0	 0.0	 0.0	 0.0	 0.0	 0.0	 0.0	 0.0	 0.0	 0.0	 0.0;
	763	 0.0	 0.84	 8.0	 -8.0	 1.06249	 100.0	 0	 23.5	 0.0	 0.0	 0.0	 0.0	 0.0	 0.0	 0.0	 0.0	 0.0	 0.0	 0.0	 0.0;
	765	 0.0	 0.0	 0.0	 0.0	 1.06349	 100.0	 0	 6.0	 0.0	 0.0	 0.0	 0.0	 0.0	 0.0	 0.0	 0.0	 0.0	 0.0	 0.0	 0.0;
	766	 0.0	 0.0	 0.0	 0.0	 1.0627	 100.0	 0	 6.0	 0.0	 0.0	 0.0	 0.0	 0.0	 0.0	 0.0	 0.0	 0.0	 0.0	 0.0	 0.0;
	765	 37.5	 -5.048	 10.0	 -6.42	 1.06349	 100.0	 1	 37.5	 0.0	 0.0	 0.0	 0.0	 0.0	 0.0	 0.0	 0.0	 0.0	 0.0	 0.0	 0.0;
	766	 37.5	 0.525	 10.0	 -6.0	 1.0627	 100.0	 1	 37.5	 0.0	 0.0	 0.0	 0.0	 0.0	 0.0	 0.0	 0.0	 0.0	 0.0	 0.0	 0.0;
	767	 0.0	 0.06	 0.06	 -0.06	 0.57559	 100.0	 0	 0.6	 0.0	 0.0	 0.0	 0.0	 0.0	 0.0	 0.0	 0.0	 0.0	 0.0	 0.0	 0.0;
	767	 0.0	 1.89	 2.61	 -2.61	 0.57559	 100.0	 0	 26.1	 0.0	 0.0	 0.0	 0.0	 0.0	 0.0	 0.0	 0.0	 0.0	 0.0	 0.0	 0.0;
	767	 0.0	 0.16	 0.16	 -0.16	 0.57559	 100.0	 0	 1.6	 0.0	 0.0	 0.0	 0.0	 0.0	 0.0	 0.0	 0.0	 0.0	 0.0	 0.0	 0.0;
	767	 0.0	 0.11	 0.11	 -0.11	 0.57559	 100.0	 0	 1.1	 0.0	 0.0	 0.0	 0.0	 0.0	 0.0	 0.0	 0.0	 0.0	 0.0	 0.0	 0.0;
	771	 0.0	 0.0	 0.0	 0.0	 1.05011	 100.0	 0	 37.5	 0.0	 0.0	 0.0	 0.0	 0.0	 0.0	 0.0	 0.0	 0.0	 0.0	 0.0	 0.0;
	771	 34.0	 0.0	 0.0	 0.0	 1.05011	 100.0	 1	 34.0	 0.0	 0.0	 0.0	 0.0	 0.0	 0.0	 0.0	 0.0	 0.0	 0.0	 0.0	 0.0;
	791	 0.0	 -0.47	 26.0	 -26.0	 1.05901	 100.0	 0	 8.0	 0.0	 0.0	 0.0	 0.0	 0.0	 0.0	 0.0	 0.0	 0.0	 0.0	 0.0	 0.0;
	791	 0.0	 -0.47	 26.0	 -26.0	 1.05901	 100.0	 0	 15.0	 0.0	 0.0	 0.0	 0.0	 0.0	 0.0	 0.0	 0.0	 0.0	 0.0	 0.0	 0.0;
	792	 0.0	 -0.47	 26.0	 -26.0	 1.06455	 100.0	 0	 19.0	 0.0	 0.0	 0.0	 0.0	 0.0	 0.0	 0.0	 0.0	 0.0	 0.0	 0.0	 0.0;
	806	 31.0	 3.379	 15.0	 -17.0	 1.07433	 100.0	 1	 31.0	 0.0	 0.0	 0.0	 0.0	 0.0	 0.0	 0.0	 0.0	 0.0	 0.0	 0.0	 0.0;
	806	 31.0	 3.379	 15.0	 -17.0	 1.07433	 100.0	 1	 31.0	 0.0	 0.0	 0.0	 0.0	 0.0	 0.0	 0.0	 0.0	 0.0	 0.0	 0.0	 0.0;
	807	 31.0	 3.877	 15.0	 -17.0	 1.0736	 100.0	 1	 31.0	 0.0	 0.0	 0.0	 0.0	 0.0	 0.0	 0.0	 0.0	 0.0	 0.0	 0.0	 0.0;
	807	 31.0	 3.877	 15.0	 -17.0	 1.0736	 100.0	 1	 31.0	 0.0	 0.0	 0.0	 0.0	 0.0	 0.0	 0.0	 0.0	 0.0	 0.0	 0.0	 0.0;
	808	 31.0	 3.877	 15.0	 -17.0	 1.0736	 100.0	 1	 31.0	 0.0	 0.0	 0.0	 0.0	 0.0	 0.0	 0.0	 0.0	 0.0	 0.0	 0.0	 0.0;
	808	 31.0	 3.877	 15.0	 -17.0	 1.0736	 100.0	 1	 31.0	 0.0	 0.0	 0.0	 0.0	 0.0	 0.0	 0.0	 0.0	 0.0	 0.0	 0.0	 0.0;
	812	 40.8	 0.0	 0.0	 0.0	 1.05941	 100.0	 1	 40.8	 0.0	 0.0	 0.0	 0.0	 0.0	 0.0	 0.0	 0.0	 0.0	 0.0	 0.0	 0.0;
	820	 32.0	 -2.611	 6.0	 -9.0	 1.05009	 100.0	 1	 32.0	 1.0	 0.0	 0.0	 0.0	 0.0	 0.0	 0.0	 0.0	 0.0	 0.0	 0.0	 0.0;
	820	 0.0	 0.0	 6.0	 -9.0	 1.05009	 100.0	 0	 32.0	 1.0	 0.0	 0.0	 0.0	 0.0	 0.0	 0.0	 0.0	 0.0	 0.0	 0.0	 0.0;
	821	 32.0	 3.111	 6.0	 -9.0	 1.06063	 100.0	 1	 32.0	 1.0	 0.0	 0.0	 0.0	 0.0	 0.0	 0.0	 0.0	 0.0	 0.0	 0.0	 0.0;
	821	 32.0	 3.111	 6.0	 -9.0	 1.06063	 100.0	 1	 32.0	 1.0	 0.0	 0.0	 0.0	 0.0	 0.0	 0.0	 0.0	 0.0	 0.0	 0.0	 0.0;
	821	 32.0	 3.111	 6.0	 -9.0	 1.06063	 100.0	 1	 32.0	 1.0	 0.0	 0.0	 0.0	 0.0	 0.0	 0.0	 0.0	 0.0	 0.0	 0.0	 0.0;
	821	 32.0	 3.111	 6.0	 -9.0	 1.06063	 100.0	 1	 32.0	 1.0	 0.0	 0.0	 0.0	 0.0	 0.0	 0.0	 0.0	 0.0	 0.0	 0.0	 0.0;
	831	 0.0	 1.01	 3.0	 -3.0	 1.0308	 100.0	 0	 13.0	 0.0	 0.0	 0.0	 0.0	 0.0	 0.0	 0.0	 0.0	 0.0	 0.0	 0.0	 0.0;
	831	 0.0	 3.0	 3.0	 -3.0	 1.0308	 100.0	 0	 7.0	 0.0	 0.0	 0.0	 0.0	 0.0	 0.0	 0.0	 0.0	 0.0	 0.0	 0.0	 0.0;
	834	 0.0	 0.0	 0.0	 0.0	 1.06701	 100.0	 0	 2.4	 0.0	 0.0	 0.0	 0.0	 0.0	 0.0	 0.0	 0.0	 0.0	 0.0	 0.0	 0.0;
	835	 27.0	 0.347	 10.0	 -10.0	 1.07937	 100.0	 1	 27.0	 0.0	 0.0	 0.0	 0.0	 0.0	 0.0	 0.0	 0.0	 0.0	 0.0	 0.0	 0.0;
	836	 0.0	 -0.46	 10.0	 -10.0	 0.9878	 100.0	 0	 20.0	 0.0	 0.0	 0.0	 0.0	 0.0	 0.0	 0.0	 0.0	 0.0	 0.0	 0.0	 0.0;
	838	 0.0	 1.03	 3.14	 -3.43	 1.06605	 100.0	 0	 9.8	 0.0	 0.0	 0.0	 0.0	 0.0	 0.0	 0.0	 0.0	 0.0	 0.0	 0.0	 0.0;
...
];

%% generator cost data
%	2	startup	shutdown	n	c(n-1)	...	c0
mpc.gencost = [
	2	 0.0	 0.0	 3	   0.000000	   2.000000	   0.000000;
	2	 0.0	 0.0	 3	   0.000000	   2.000000	   0.000000;
	2	 0.0	 0.0	 3	   0.000000	   2.000000	   0.000000;
	2	 0.0	 0.0	 3	   0.000000	   1.000000	   0.000000;
	2	 0.0	 0.0	 3	   0.000000	   2.000000	   0.000000;
	2	 0.0	 0.0	 3	   0.000000	   2.000000	   0.000000;
	2	 0.0	 0.0	 3	   0.000000	   2.000000	   0.000000;
	2	 0.0	 0.0	 3	   0.000000	   2.000000	   0.000000;
	2	 0.0	 0.0	 3	   0.000000	   2.000000	   0.000000;
	2	 0.0	 0.0	 3	   0.000000	   2.000000	   0.000000;
	2	 0.0	 0.0	 3	   0.000000	   1.000000	   0.000000;
	2	 0.0	 0.0	 3	   0.000000	   2.000000	   0.000000;
	2	 0.0	 0.0	 3	   0.000000	   2.000000	   0.000000;
	2	 0.0	 0.0	 3	   0.000000	   1.000000	   0.000000;
	2	 0.0	 0.0	 3	   0.000000	   1.000000	   0.000000;
	2	 0.0	 0.0	 3	   0.000000	   2.000000	   0.000000;
	2	 0.0	 0.0	 3	   0.000000	   2.000000	   0.000000;
	2	 0.0	 0.0	 3	   0.000000	   1.000000	   0.000000;
	2	 0.0	 0.0	 3	   0.000000	   2.000000	   0.000000;
	2	 0.0	 0.0	 3	   0.000000	   2.000000	   0.000000;
	2	 0.0	 0.0	 3	   0.000000	   2.000000	   0.000000;
	2	 0.0	 0.0	 3	   0.000000	   2.000000	   0.000000;
	2	 0.0	 0.0	 3	   0.000000	   2.000000	   0.000000;
	2	 0.0	 0.0	 3	   0.000000	   2.000000	   0.000000;
	2	 0.0	 0.0	 3	   0.000000	   1.000000	   0.000000;
	2	 0.0	 0.0	 3	   0.000000	   1.000000	   0.000000;
	2	 0.0	 0.0	 3	   0.000000	   2.000000	   0.000000;
	2	 0.0	 0.0	 3	   0.000000	   1.000000	   0.000000;
	2	 0.0	 0.0	 3	   0.000000	   1.000000	   0.000000;
	2	 0.0	 0.0	 3	   0.000000	   1.000000	   0.000000;
	2	 0.0	 0.0	 3	   0.000000	   2.000000	   0.000000;
	2	 0.0	 0.0	 3	   0.000000	   2.000000	   0.000000;
	2	 0.0	 0.0	 3	   0.000000	   2.000000	   0.000000;
	2	 0.0	 0.0	 3	   0.000000	   2.000000	   0.000000;
	2	 0.0	 0.0	 3	   0.000000	   1.000000	   0.000000;
	2	 0.0	 0.0	 3	   0.000000	   2.000000	   0.000000;
	2	 0.0	 0.0	 3	   0.000000	   1.000000	   0.000000;
	2	 0.0	 0.0	 3	   0.000000	   1.000000	   0.000000;
	2	 0.0	 0.0	 3	   0.000000	   2.000000	   0.000000;
	2	 0.0	 0.0	 3	   0.000000	   2.000000	   0.000000;
	2	 0.0	 0.0	 3	   0.000000	   2.000000	   0.000000;
	2	 0.0	 0.0	 3	   0.000000	   2.000000	   0.000000;
	2	 0.0	 0.0	 3	   0.000000	   1.000000	   0.000000;
	2	 0.0	 0.0	 3	   0.000000	   1.000000	   0.000000;
	2	 0.0	 0.0	 3	   0.000000	   1.000000	   0.000000;
	2	 0.0	 0.0	 3	   0.000000	   2.000000	   0.000000;
	2	 0.0	 0.0	 3	   0.000000	   2.000000	   0.000000;
	2	 0.0	 0.0	 3	   0.000000	   2.000000	   0.000000;
	2	 0.0	 0.0	 3	   0.000000	   2.000000	   0.000000;
	2	 0.0	 0.0	 3	   0.000000	   2.000000	   0.000000;
	2	 0.0	 0.0	 3	   0.000000	   2.000000	   0.000000;
	2	 0.0	 0.0	 3	   0.000000	   1.000000	   0.000000;
	2	 0.0	 0.0	 3	   0.000000	   2.000000	   0.000000;
	2	 0.0	 0.0	 3	   0.000000	   2.000000	   0.000000;
	2	 0.0	 0.0	 3	   0.000000	   2.000000	   0.000000;
	2	 0.0	 0.0	 3	   0.000000	   2.000000	   0.000000;
	2	 0.0	 0.0	 3	   0.000000	   1.000000	   0.000000;
	2	 0.0	 0.0	 3	   0.000000	   1.000000	   0.000000;
	2	 0.0	 0.0	 3	   0.000000	   1.000000	   0.000000;
	2	 0.0	 0.0	 3	   0.000000	   2.000000	   0.000000;
	2	 0.0	 0.0	 3	   0.000000	   2.000000	   0.000000;
	2	 0.0	 0.0	 3	   0.000000	   2.000000	   0.000000;
	2	 0.0	 0.0	 3	   0.000000	   2.000000	   0.000000;
	2	 0.0	 0.0	 3	   0.000000	   1.000000	   0.000000;
	2	 0.0	 0.0	 3	   0.000000	   2.000000	   0.000000;
	2	 0.0	 0.0	 3	   0.000000	   1.000000	   0.000000;
	2	 0.0	 0.0	 3	   0.000000	   1.000000	   0.000000;
	2	 0.0	 0.0	 3	   0.000000	   2.000000	   0.000000;
	2	 0.0	 0.0	 3	   0.000000	   2.000000	   0.000000;
	2	 0.0	 0.0	 3	   0.000000	   2.000000	   0.000000;
	2	 0.0	 0.0	 3	   0.000000	   2.000000	   0.000000;
	2	 0.0	 0.0	 3	   0.000000	   2.000000	   0.000000;
	2	 0.0	 0.0	 3	   0.000000	   2.000000	   0.000000;
	2	 0.0	 0.0	 3	   0.000000	   1.000000	   0.000000;
	2	 0.0	 0.0	 3	   0.000000	   2.000000	   0.000000;
	2	 0.0	 0.0	 3	   0.000000	   2.000000	   0.000000;
	2	 0.0	 0.0	 3	   0.000000	   2.000000	   0.000000;
	2	 0.0	 0.0	 3	   0.000000	   2.000000	   0.000000;
	2	 0.0	 0.0	 3	   0.000000	   2.000000	   0.000000;
	2	 0.0	 0.0	 3	   0.000000	   2.000000	   0.000000;
	2	 0.0	 0.0	 3	   0.000000	   2.000000	   0.000000;
	2	 0.0	 0.0	 3	   0.000000	   1.000000	   0.000000;
	2	 0.0	 0.0	 3	   0.000000	   2.000000	   0.000000;
	2	 0.0	 0.0	 3	   0.000000	   2.000000	   0.000000;
	2	 0.0	 0.0	 3	   0.000000	   2.000000	   0.000000;
	2	 0.0	 0.0	 3	   0.000000	   2.000000	   0.000000;
	2	 0.0	 0.0	 3	   0.000000	   2.000000	   0.000000;
	2	 0.0	 0.0	 3	   0.000000	   2.000000	   0.000000;
	2	 0.0	 0.0	 3	   0.000000	   1.000000	   0.000000;
	2	 0.0	 0.0	 3	   0.000000	   2.000000	   0.000000;
	2	 0.0	 0.0	 3	   0.000000	   2.000000	   0.000000;
	2	 0.0	 0.0	 3	   0.000000	   1.000000	   0.000000;
	2	 0.0	 0.0	 3	   0.000000	   1.000000	   0.000000;
	2	 0.0	 0.0	 3	   0.000000	   2.000000	   0.000000;
	2	 0.0	 0.0	 3	   0.000000	   2.000000	   0.000000;
	2	 0.0	 0.0	 3	   0.000000	   2.000000	   0.000000;
	2	 0.0	 0.0	 3	   0.000000	   2.000000	   0.000000;
	2	 0.0	 0.0	 3	   0.000000	   2.000000	   0.000000;
	2	 0.0	 0.0	 3	   0.000000	   2.000000	   0.000000;
	2	 0.0	 0.0	 3	   0.000000	   2.000000	   0.000000;
	2	 0.0	 0.0	 3	   0.000000	   2.000000	   0.000000;
	2	 0.0	 0.0	 3	   0.000000	   2.000000	   0.000000;
	2	 0.0	 0.0	 3	   0.000000	   2.000000	   0.000000;
	2	 0.0	 0.0	 3	   0.000000	   1.000000	   0.000000;
	2	 0.0	 0.0	 3	   0.000000	   1.000000	   0.000000;
	2	 0.0	 0.0	 3	   0.000000	   1.000000	   0.000000;
	2	 0.0	 0.0	 3	   0.000000	   2.000000	   0.000000;
	2	 0.0	 0.0	 3	   0.000000	   1.000000	   0.000000;
	2	 0.0	 0.0	 3	   0.000000	   2.000000	   0.000000;
	2	 0.0	 0.0	 3	   0.000000	   2.000000	   0.000000;
	2	 0.0	 0.0	 3	   0.000000	   2.000000	   0.000000;
	2	 0.0	 0.0	 3	   0.000000	   2.000000	   0.000000;
	2	 0.0	 0.0	 3	   0.000000	   2.000000	   0.000000;
	2	 0.0	 0.0	 3	   0.000000	   1.000000	   0.000000;
	2	 0.0	 0.0	 3	   0.000000	   2.000000	   0.000000;
	2	 0.0	 0.0	 3	   0.000000	   2.000000	   0.000000;
	2	 0.0	 0.0	 3	   0.000000	   2.000000	   0.000000;
	2	 0.0	 0.0	 3	   0.000000	   2.000000	   0.000000;
	2	 0.0	 0.0	 3	   0.000000	   2.000000	   0.000000;
	2	 0.0	 0.0	 3	   0.000000	   1.000000	   0.000000;
	2	 0.0	 0.0	 3	   0.000000	   2.000000	   0.000000;
	2	 0.0	 0.0	 3	   0.000000	   2.000000	   0.000000;
	2	 0.0	 0.0	 3	   0.000000	   2.000000	   0.000000;
	2	 0.0	 0.0	 3	   0.000000	   2.000000	   0.000000;
	2	 0.0	 0.0	 3	   0.000000	   2.000000	   0.000000;
	2	 0.0	 0.0	 3	   0.000000	   2.000000	   0.000000;
	2	 0.0	 0.0	 3	   0.000000	   1.000000	   0.000000;
	2	 0.0	 0.0	 3	   0.000000	   2.000000	   0.000000;
	2	 0.0	 0.0	 3	   0.000000	   2.000000	   0.000000;
	2	 0.0	 0.0	 3	   0.000000	   1.000000	   0.000000;
	2	 0.0	 0.0	 3	   0.000000	   1.000000	   0.000000;
	2	 0.0	 0.0	 3	   0.000000	   2.000000	   0.000000;
	2	 0.0	 0.0	 3	   0.000000	   2.000000	   0.000000;
	2	 0.0	 0.0	 3	   0.000000	   1.000000	   0.000000;
	2	 0.0	 0.0	 3	   0.000000	   2.000000	   0.000000;
	2	 0.0	 0.0	 3	   0.000000	   2.000000	   0.000000;
	2	 0.0	 0.0	 3	   0.000000	   2.000000	   0.000000;
	2	 0.0	 0.0	 3	   0.000000	   2.000000	   0.000000;
	2	 0.0	 0.0	 3	   0.000000	   1.000000	   0.000000;
	2	 0.0	 0.0	 3	   0.000000	   1.000000	   0.000000;
	2	 0.0	 0.0	 3	   0.000000	   2.000000	   0.000000;
	2	 0.0	 0.0	 3	   0.000000	   1.000000	   0.000000;
	2	 0.0	 0.0	 3	   0.000000	   2.000000	   0.000000;
	2	 0.0	 0.0	 3	   0.000000	   2.000000	   0.000000;
	2	 0.0	 0.0	 3	   0.000000	   2.000000	   0.000000;
	2	 0.0	 0.0	 3	   0.000000	   1.000000	   0.000000;
	2	 0.0	 0.0	 3	   0.000000	   1.000000	   0.000000;
	2	 0.0	 0.0	 3	   0.000000	   1.000000	   0.000000;
	2	 0.0	 0.0	 3	   0.000000	   1.000000	   0.000000;
	2	 0.0	 0.0	 3	   0.000000	   1.000000	   0.000000;
	2	 0.0	 0.0	 3	   0.000000	   1.000000	   0.000000;
	2	 0.0	 0.0	 3	   0.000000	   2.000000	   0.000000;
	2	 0.0	 0.0	 3	   0.000000	   2.000000	   0.000000;
	2	 0.0	 0.0	 3	   0.000000	   1.000000	   0.000000;
	2	 0.0	 0.0	 3	   0.000000	   2.000000	   0.000000;
	2	 0.0	 0.0	 3	   0.000000	   2.000000	   0.000000;
	2	 0.0	 0.0	 3	   0.000000	   1.000000	   0.000000;
	2	 0.0	 0.0	 3	   0.000000	   1.000000	   0.000000;
	2	 0.0	 0.0	 3	   0.000000	   1.000000	   0.000000;
	2	 0.0	 0.0	 3	   0.000000	   2.000000	   0.000000;
	2	 0.0	 0.0	 3	   0.000000	   2.000000	   0.000000;
	2	 0.0	 0.0	 3	   0.000000	   2.000000	   0.000000;
	2	 0.0	 0.0	 3	   0.000000	   2.000000	   0.000000;
	2	 0.0	 0.0	 3	   0.000000	   2.000000	   0.000000;
	2	 0.0	 0.0	 3	   0.000000	   1.000000	   0.000000;
	2	 0.0	 0.0	 3	   0.000000	   1.000000	   0.000000;
	2	 0.0	 0.0	 3	   0.000000	   2.000000	   0.000000;
	2	 0.0	 0.0	 3	   0.000000	   2.000000	   0.000000;
	2	 0.0	 0.0	 3	   0.000000	   2.000000	   0.000000;
	2	 0.0	 0.0	 3	   0.000000	   2.000000	   0.000000;
	2	 0.0	 0.0	 3	   0.000000	   1.000000	   0.000000;
	2	 0.0	 0.0	 3	   0.000000	   1.000000	   0.000000;
	2	 0.0	 0.0	 3	   0.000000	   2.000000	   0.000000;
	2	 0.0	 0.0	 3	   0.000000	   2.000000	   0.000000;
	2	 0.0	 0.0	 3	   0.000000	   2.000000	   0.000000;
	2	 0.0	 0.0	 3	   0.000000	   2.000000	   0.000000;
	2	 0.0	 0.0	 3	   0.000000	   2.000000	   0.000000;
	2	 0.0	 0.0	 3	   0.000000	   1.000000	   0.000000;
	2	 0.0	 0.0	 3	   0.000000	   2.000000	   0.000000;
	2	 0.0	 0.0	 3	   0.000000	   2.000000	   0.000000;
	2	 0.0	 0.0	 3	   0.000000	   2.000000	   0.000000;
	2	 0.0	 0.0	 3	   0.000000	   1.000000	   0.000000;
	2	 0.0	 0.0	 3	   0.000000	   1.000000	   0.000000;
	2	 0.0	 0.0	 3	   0.000000	   1.000000	   0.000000;
	2	 0.0	 0.0	 3	   0.000000	   1.000000	   0.000000;
	2	 0.0	 0.0	 3	   0.000000	   1.000000	   0.000000;
	2	 0.0	 0.0	 3	   0.000000	   1.000000	   0.000000;
	2	 0.0	 0.0	 3	   0.000000	   1.000000	   0.000000;
	2	 0.0	 0.0	 3	   0.000000	   1.000000	   0.000000;
	2	 0.0	 0.0	 3	   0.000000	   2.000000	   0.000000;
	2	 0.0	 0.0	 3	   0.000000	   1.000000	   0.000000;
	2	 0.0	 0.0	 3	   0.000000	   1.000000	   0.000000;
	2	 0.0	 0.0	 3	   0.000000	   1.000000	   0.000000;
	2	 0.0	 0.0	 3	   0.000000	   1.000000	   0.000000;
	2	 0.0	 0.0	 3	   0.000000	   2.000000	   0.000000;
	2	 0.0	 0.0	 3	   0.000000	   2.000000	   0.000000;
	2	 0.0	 0.0	 3	   0.000000	   2.000000	   0.000000;
	2	 0.0	 0.0	 3	   0.000000	   1.000000	   0.000000;
	2	 0.0	 0.0	 3	   0.000000	   2.000000	   0.000000;
	2	 0.0	 0.0	 3	   0.000000	   2.000000	   0.000000;
...
];

%% branch data
%	fbus	tbus	r	x	b	rateA	rateB	rateC	ratio	angle	status	angmin	angmax
mpc.branch = [
	4647	 1	 0.005726	 0.010482	 0.0	 2186	 2186	 2186	 1.0	 0.0	 1	 -30.0	 30.0;
	5244	 1	 0.01284	 0.025679	 0.0	 910	 910	 910	 1.0	 0.0	 1	 -30.0	 30.0;
	1682	 2	 0.005799	 0.010615	 0.0075	 2441	 2441	 2441	 1.0	 0.0	 1	 -30.0	 30.0;
	1673	 3	 0.134039	 0.309398	 0.0035	 91	 91	 91	 1.0	 0.0	 1	 -30.0	 30.0;
	2303	 3	 0.049131	 0.133283	 0.0015	 215	 215	 215	 1.0	 0.0	 1	 -30.0	 30.0;
	700	 4	 0.025926	 0.109136	 0.0002	 281	 281	 281	 1.0	 0.0	 1	 -30.0	 30.0;
	3939	 4	 0.05	 0.126914	 0.0006	 226	 226	 226	 1.0	 0.0	 1	 -30.0	 30.0;
	5046	 4	 0.02321	 0.097407	 0.0016	 315	 315	 315	 1.0	 0.0	 1	 -30.0	 30.0;
	4413	 5	 0.040564	 0.113631	 0.0013	 245	 245	 245	 1.0	 0.0	 1	 -30.0	 30.0;
	2779	 6	 0.006047	 0.020912	 0.0222	 1398	 1398	 1398	 1.0	 0.0	 1	 -30.0	 30.0;
	2780	 7	 0.012472	 0.032099	 0.0061	 884	 884	 884	 1.0	 0.0	 1	 -30.0	 30.0;
	2466	 8	 0.002607	 0.017462	 0.0324	 540.0	 540.0	 540.0	 1.0	 0.0	 1	 -30.0	 30.0;
	470	 9	 0.053893	 0.14258	 0.0017	 194	 194	 194	 1.0	 0.0	 1	 -30.0	 30.0;
	11	 10	 0.000247	 0.001235	 0.0005	 24078	 24078	 24078	 1.0	 0.0	 1	 -30.0	 30.0;
	11	 10	 0.000247	 0.001235	 0.0002	 24078	 24078	 24078	 1.0	 0.0	 1	 -30.0	 30.0;
	30	 11	 0.039753	 0.100988	 0.0047	 284	 284	 284	 1.0	 0.0	 1	 -30.0	 30.0;
	2929	 11	 0.037654	 0.096173	 0.001	 294	 294	 294	 1.0	 0.0	 1	 -30.0	 30.0;
	2181	 12	 0.014613	 0.060721	 0.0008	 487	 487	 487	 1.0	 0.0	 1	 -30.0	 30.0;
	4017	 12	 0.034064	 0.121139	 0.0015	 242	 242	 242	 1.0	 0.0	 1	 -30.0	 30.0;
	4019	 12	 0.000242	 0.000442	 0.0004	 60355	 60355	 60355	 1.0	 0.0	 1	 -30.0	 30.0;
	115	 13	 2.1e-05	 0.000125	 0.1386	 737.0	 737.0	 737.0	 1.0	 0.0	 1	 -30.0	 30.0;
	2337	 13	 0.000145	 0.001877	 0.0635	 2487.0	 2487.0	 2487.0	 1.0	 0.0	 1	 -30.0	 30.0;
	4577	 13	 0.000319	 0.003234	 0.0838	 1841.0	 1841.0	 1841.0	 1.0	 0.0	 1	 -30.0	 30.0;
	116	 13	 2.1e-05	 0.000125	 0.1386	 737.0	 737.0	 737.0	 1.0	 0.0	 1	 -30.0	 30.0;
	1225	 14	 0.04	 0.134198	 0.0274	 217	 217	 217	 1.0	 0.0	 1	 -30.0	 30.0;
	2874	 14	 0.012222	 0.052346	 0.0026	 565	 565	 565	 1.0	 0.0	 1	 -30.0	 30.0;
	4595	 14	 0.007284	 0.045432	 0.0024	 660	 660	 660	 1.0	 0.0	 1	 -30.0	 30.0;
	4955	 14	 0.059963	 0.154222	 0.0236	 184	 184	 184	 1.0	 0.0	 1	 -30.0	 30.0;
	5230	 14	 0.018025	 0.110988	 0.0073	 270	 270	 270	 1.0	 0.0	 1	 -30.0	 30.0;
	2874	 14	 0.012222	 0.052593	 0.0032	 562	 562	 562	 1.0	 0.0	 1	 -30.0	 30.0;
	4595	 14	 0.007284	 0.044938	 0.0024	 667	 667	 667	 1.0	 0.0	 1	 -30.0	 30.0;
	2906	 15	 0.037541	 0.100529	 0.0011	 284	 284	 284	 1.0	 0.0	 1	 -30.0	 30.0;
	4124	 15	 0.090199	 0.211388	 0.0023	 133	 133	 133	 1.0	 0.0	 1	 -30.0	 30.0;
	4455	 15	 0.09801	 0.267574	 0.0	 107	 107	 107	 1.0	 0.0	 1	 -30.0	 30.0;
	249	 16	 0.071806	 0.191484	 0.0019	 149	 149	 149	 1.0	 0.0	 1	 -30.0	 30.0;
	337	 16	 0.119174	 0.284958	 0.0044	 99	 99	 99	 1.0	 0.0	 1	 -30.0	 30.0;
	5834	 17	 0.022346	 0.061111	 0.0029	 457	 457	 457	 1.0	 0.0	 1	 -30.0	 30.0;
	3727	 18	 0.009383	 0.019753	 0.0	 1194	 1194	 1194	 1.0	 0.0	 1	 -30.0	 30.0;
	5094	 19	 0.000252	 0.000504	 0.0	 52398	 52398	 52398	 1.0	 0.0	 1	 -30.0	 30.0;
	3727	 20	 0.001975	 0.004444	 0.0	 5369	 5369	 5369	 1.0	 0.0	 1	 -30.0	 30.0;
	1354	 21	 0.036296	 0.099012	 0.0045	 282	 282	 282	 1.0	 0.0	 1	 -30.0	 30.0;
	1598	 21	 0.032716	 0.089136	 0.0057	 313	 313	 313	 1.0	 0.0	 1	 -30.0	 30.0;
	1843	 22	 0.138574	 0.351474	 0.0058	 81	 81	 81	 1.0	 0.0	 1	 -30.0	 30.0;
	5023	 22	 0.094407	 0.210456	 0.0044	 132	 132	 132	 1.0	 0.0	 1	 -30.0	 30.0;
	1157	 23	 0.047115	 0.117158	 0.001	 234	 234	 234	 1.0	 0.0	 1	 -30.0	 30.0;
	2703	 23	 0.039557	 0.120937	 0.0132	 233	 233	 233	 1.0	 0.0	 1	 -30.0	 30.0;
	3425	 23	 0.022676	 0.062484	 0.0007	 445	 445	 445	 1.0	 0.0	 1	 -30.0	 30.0;
	144	 24	 0.064568	 0.16716	 0.0113	 180	 180	 180	 1.0	 0.0	 1	 -30.0	 30.0;
	1282	 24	 0.048605	 0.128481	 0.0062	 235	 235	 235	 1.0	 0.0	 1	 -30.0	 30.0;
	490	 25	 0.004815	 0.02963	 0.0016	 1048	 1048	 1048	 1.0	 0.0	 1	 -30.0	 30.0;
	2093	 25	 0.007309	 0.04463	 0.0073	 710	 710	 710	 1.0	 0.0	 1	 -30.0	 30.0;
	612	 26	 0.034321	 0.145802	 0.0073	 199	 199	 199	 1.0	 0.0	 1	 -30.0	 30.0;
	1866	 26	 0.004815	 0.009753	 0.0005	 2731	 2731	 2731	 1.0	 0.0	 1	 -30.0	 30.0;
	2602	 26	 0.049012	 0.133704	 0.0063	 209	 209	 209	 1.0	 0.0	 1	 -30.0	 30.0;
	2922	 26	 0.04642	 0.126543	 0.0058	 221	 221	 221	 1.0	 0.0	 1	 -30.0	 30.0;
	3339	 26	 0.046296	 0.125926	 0.006	 222	 222	 222	 1.0	 0.0	 1	 -30.0	 30.0;
	4632	 26	 0.053704	 0.136753	 0.0065	 203	 203	 203	 1.0	 0.0	 1	 -30.0	 30.0;
	2922	 26	 0.03358	 0.120988	 0.0062	 237	 237	 237	 1.0	 0.0	 1	 -30.0	 30.0;
	536	 27	 0.006163	 0.041067	 0.0759	 446.0	 446.0	 446.0	 1.0	 0.0	 1	 -30.0	 30.0;
	2350	 27	 0.000652	 0.004369	 0.0081	 558.0	 558.0	 558.0	 1.0	 0.0	 1	 -30.0	 30.0;
	2684	 28	 0.050945	 0.131922	 0.0015	 216	 216	 216	 1.0	 0.0	 1	 -30.0	 30.0;
	3892	 28	 0.058781	 0.149005	 0.0017	 190	 190	 190	 1.0	 0.0	 1	 -30.0	 30.0;
	2887	 29	 0.067019	 0.137566	 0.0037	 193	 193	 193	 1.0	 0.0	 1	 -30.0	 30.0;
	3321	 29	 0.032754	 0.088939	 0.0039	 312	 312	 312	 1.0	 0.0	 1	 -30.0	 30.0;
	3321	 29	 0.030184	 0.080096	 0.0053	 345	 345	 345	 1.0	 0.0	 1	 -30.0	 30.0;
	144	 30	 0.066049	 0.187778	 0.0099	 161	 161	 161	 1.0	 0.0	 1	 -30.0	 30.0;
	1553	 30	 0.065062	 0.133704	 0.0062	 212	 212	 212	 1.0	 0.0	 1	 -30.0	 30.0;
	4841	 30	 0.041728	 0.106049	 0.005	 281	 281	 281	 1.0	 0.0	 1	 -30.0	 30.0;
	150	 31	 0.009574	 0.03875	 0.0114	 740	 740	 740	 1.0	 0.0	 1	 -30.0	 30.0;
	3162	 31	 0.000171	 0.000313	 0.0002	 82782	 82782	 82782	 1.0	 0.0	 1	 -30.0	 30.0;
	3692	 31	 0.034266	 0.09423	 0.001	 295	 295	 295	 1.0	 0.0	 1	 -30.0	 30.0;
	4741	 31	 0.006803	 0.028219	 0.0	 1018	 1018	 1018	 1.0	 0.0	 1	 -30.0	 30.0;
	150	 31	 0.008566	 0.037541	 0.0121	 767	 767	 767	 1.0	 0.0	 1	 -30.0	 30.0;
	3729	 32	 0.009733	 0.034089	 0.0185	 902	 902	 902	 1.0	 0.0	 1	 -30.0	 30.0;
	366	 34	 0.000277	 0.002015	 0.003	 288.0	 288.0	 288.0	 1.0	 0.0	 1	 -30.0	 30.0;
	1017	 33	 0.00881	 0.033995	 0.0607	 289.0	 289.0	 289.0	 1.0	 0.0	 1	 -30.0	 30.0;
	1158	 33	 0.004642	 0.019832	 0.0354	 255.0	 255.0	 255.0	 1.0	 0.0	 1	 -30.0	 30.0;
	2580	 34	 0.008861	 0.03506	 0.0623	 288.0	 288.0	 288.0	 1.0	 0.0	 1	 -30.0	 30.0;
	2704	 34	 0.006993	 0.032869	 0.0557	 255.0	 255.0	 255.0	 1.0	 0.0	 1	 -30.0	 30.0;
	4746	 33	 0.002173	 0.008731	 0.0152	 3441	 3441	 3441	 1.0	 0.0	 1	 -30.0	 30.0;
	4858	 34	 0.00077	 0.003121	 0.0051	 9629	 9629	 9629	 1.0	 0.0	 1	 -30.0	 30.0;
	5671	 33	 0.004109	 0.016138	 0.0284	 288.0	 288.0	 288.0	 1.0	 0.0	 1	 -30.0	 30.0;
	368	 35	 8.3e-05	 0.000907	 0.0202	 1034.0	 1034.0	 1034.0	 1.0	 0.0	 1	 -30.0	 30.0;
	1109	 35	 0.000552	 0.006726	 0.0939	 1786.0	 1786.0	 1786.0	 1.0	 0.0	 1	 -30.0	 30.0;
...